%%%%%%%%%%%%%%%%%%%%%%%%%%%%%%%%%%%%%%%%%%%%%%%%%%%%%%%%%%%%%%%%%%%%%%%%%%%
%%%%                                                                  %%%%%
%%%%    This is a modified SCOTS-feasible instance adapted from the   %%%%%
%%%%                                :                                 %%%%%
%%%%    IEEE PES Power Grid Library - Optimal Power Flow - v21.07     %%%%%
%%%%          (https://github.com/power-grid-lib/pglib-opf)           %%%%%
%%%%               Benchmark Group - Typical Operations               %%%%%
%%%%                         29 - July - 2021                         %%%%%
%%%%                                                                  %%%%%
%%%%%%%%%%%%%%%%%%%%%%%%%%%%%%%%%%%%%%%%%%%%%%%%%%%%%%%%%%%%%%%%%%%%%%%%%%%
%
%   This is a synthetic 500 bus case, developed for use in ARPA-e's Grid
%   Optimization Competition, Challenge 1.
%
%   https://gocompetition.energy.gov/challenges/22/datasets
%
%   When publishing results based on this data, please cite:
%
%   [1] A.B. Birchfield, T. Xu, K.M. Gegner, K.S. Shetye, T.J. Overbye,
%       "Grid Structural Characteristics as Validation Criteria for
%       Synthetic Networks," IEEE Transactions on Power Systems, 2017.
%
%   February, 2020
%
%   Copyright (c) 2020 by A.B. Birchfield, H. Li, J. Wert, J. Yeo, T. Xu,
%   and T.J. Overbye
%   Licensed under the Creative Commons Attribution 4.0 International license,
%   http://creativecommons.org/licenses/by/4.0/
%
%% MATPOWER Case Format : Version 2
function mpc = pglib_opf_case500_goc
mpc.version = '2';

%%-----  Power Flow Data  -----%%
%% system MVA base
mpc.baseMVA = 100.0;
%% bus data
%    bus_i    type    Pd    Qd    Gs    Bs    area    Vm    Va    baseKV    zone    Vmax    Vmin
mpc.bus = [
	1	1	35.61882	6.57372	0.0	0.0	1	1.0	0.0	138.0	1	1.1	0.9				
	2	1	98.24997	27.5116	0.0	0.0	1	1.0	0.0	138.0	1	1.1	0.9				
	3	1	48.64711	11.12996	0.0	0.0	1	1.0	0.0	138.0	1	1.1	0.9				
	4	1	85.9078	3.7466	0.0	0.0	1	1.0	0.0	138.0	1	1.1	0.9				
	5	1	84.78027	14.43204	0.0	0.0	1	1.0	0.0	138.0	1	1.1	0.9				
	6	1	62.47844	5.52129	0.0	0.0	1	1.0	0.0	138.0	1	1.1	0.9				
	7	1	49.78416	17.19519	0.0	0.0	1	1.0	0.0	138.0	1	1.1	0.9				
	8	1	64.70161	7.07129	0.0	0.0	1	1.0	0.0	138.0	1	1.1	0.9				
	9	1	20.50395	8.80639	0.0	0.0	1	1.0	0.0	138.0	1	1.1	0.9				
	10	1	46.41392	14.1549	0.0	0.0	1	1.0	0.0	138.0	1	1.1	0.9				
	11	1	16.10085	3.92007	0.0	0.0	1	1.0	0.0	138.0	1	1.1	0.9				
	12	1	43.58844	2.8695	0.0	0.0	1	1.0	0.0	138.0	1	1.1	0.9				
	13	1	61.22114	10.72396	0.0	0.0	1	1.0	0.0	138.0	1	1.1	0.9				
	14	1	130.84189	52.41012	0.0	0.0	1	1.0	0.0	138.0	1	1.1	0.9				
	15	1	104.28734	12.65258	0.0	0.0	1	1.0	0.0	138.0	1	1.1	0.9				
	16	1	27.22817	9.90526	0.0	0.0	1	1.0	0.0	138.0	1	1.1	0.9				
	17	1	32.01146	13.06104	0.0	0.0	1	1.0	0.0	138.0	1	1.1	0.9				
	18	1	119.67057	30.77414	0.0	0.0	1	1.0	0.0	138.0	1	1.1	0.9				
	19	1	65.32053	13.43194	0.0	0.0	1	1.0	0.0	138.0	1	1.1	0.9				
	20	1	0.0	0.0	0.0	0.0	1	1.0	0.0	345.0	1	1.1	0.9				
	21	1	58.21881	18.96613	0.0	0.0	1	1.0	0.0	138.0	1	1.1	0.9				
	22	1	0.0	0.0	0.0	0.0	1	1.0	0.0	345.0	1	1.1	0.9				
	23	1	29.0187	6.21065	0.0	0.0	1	1.0	0.0	138.0	1	1.1	0.9				
	24	1	54.27996	33.95404	0.0	0.0	1	1.0	0.0	138.0	1	1.1	0.9				
	25	1	0.0	0.0	0.0	0.0	1	1.0	0.0	345.0	1	1.1	0.9				
	26	1	0.0	0.0	0.0	0.0	1	1.0	0.0	138.0	1	1.1	0.9				
	27	1	102.98049	33.4489	0.0	0.0	1	1.0	0.0	345.0	1	1.1	0.9				
	28	1	61.33417	20.6649	0.0	0.0	1	1.0	0.0	138.0	1	1.1	0.9				
	29	1	50.93486	10.69025	0.0	0.0	1	1.0	0.0	138.0	1	1.1	0.9				
	30	1	52.92155	2.78886	0.0	0.0	1	1.0	0.0	138.0	1	1.1	0.9				
	31	1	96.44392	21.50275	0.0	0.0	1	1.0	0.0	138.0	1	1.1	0.9				
	32	1	78.80364	26.90265	0.0	0.0	1	1.0	0.0	138.0	1	1.1	0.9				
	33	1	173.87396	98.10836	0.0	0.0	1	1.0	0.0	138.0	1	1.1	0.9				
	34	1	62.11117	13.14354	0.0	0.0	1	1.0	0.0	138.0	1	1.1	0.9				
	35	1	114.97555	12.15542	0.0	0.0	1	1.0	0.0	138.0	1	1.1	0.9				
	36	1	135.53799	51.44229	0.0	0.0	1	1.0	0.0	138.0	1	1.1	0.9				
	37	1	163.47215	36.67946	0.0	0.0	1	1.0	0.0	138.0	1	1.1	0.9				
	38	1	94.23878	20.04084	0.0	0.0	1	1.0	0.0	138.0	1	1.1	0.9				
	39	1	133.70834	50.68181	0.0	0.0	1	1.0	0.0	138.0	1	1.1	0.9				
	40	1	153.11126	18.77494	0.0	0.0	1	1.0	0.0	138.0	1	1.1	0.9				
	41	1	0.0	0.0	0.0	0.0	1	1.0	0.0	345.0	1	1.1	0.9				
	42	1	98.13381	30.7346	0.0	0.0	1	1.0	0.0	138.0	1	1.1	0.9				
	43	1	0.0	0.0	0.0	0.0	1	1.0	0.0	345.0	1	1.1	0.9				
	44	1	77.88005	5.03738	0.0	0.0	1	1.0	0.0	138.0	1	1.1	0.9				
	45	1	302.57835	18.48031	0.0	0.0	1	1.0	0.0	138.0	1	1.1	0.9				
	46	1	114.29507	24.00707	0.0	0.0	1	1.0	0.0	138.0	1	1.1	0.9				
	47	1	88.2312	9.19995	0.0	0.0	1	1.0	0.0	138.0	1	1.1	0.9				
	48	1	72.71207	7.13658	0.0	0.0	1	1.0	0.0	138.0	1	1.1	0.9				
	49	1	127.71185	15.1815	0.0	0.0	1	1.0	0.0	138.0	1	1.1	0.9				
	50	1	86.94434	53.88002	0.0	0.0	1	1.0	0.0	138.0	1	1.1	0.9				
	51	1	88.68692	19.42157	0.0	0.0	1	1.0	0.0	138.0	1	1.1	0.9				
	52	1	0.0	0.0	0.0	0.0	1	1.0	0.0	345.0	1	1.1	0.9				
	53	1	171.6378	44.16329	0.0	0.0	1	1.0	0.0	138.0	1	1.1	0.9				
	54	1	0.0	0.0	0.0	0.0	1	1.0	0.0	345.0	1	1.1	0.9				
	55	1	36.12391	3.91519	0.0	0.0	1	1.0	0.0	138.0	1	1.1	0.9				
	56	1	38.57788	3.99452	0.0	0.0	1	1.0	0.0	138.0	1	1.1	0.9				
	57	1	19.68323	6.08113	0.0	0.0	1	1.0	0.0	138.0	1	1.1	0.9				
	58	1	43.83201	35.83586	0.0	0.0	1	1.0	0.0	138.0	1	1.1	0.9				
	59	1	42.90744	17.47175	0.0	90.84931	1	1.0	0.0	138.0	1	1.1	0.9				
	60	1	22.94545	9.19666	0.0	0.0	1	1.0	0.0	138.0	1	1.1	0.9				
	61	1	44.96994	9.7591	0.0	0.0	1	1.0	0.0	138.0	1	1.1	0.9				
	62	1	36.43759	4.47433	0.0	0.0	1	1.0	0.0	138.0	1	1.1	0.9				
	63	1	71.68031	17.14206	0.0	-0.76986	1	1.0	0.0	138.0	1	1.1	0.9				
	64	1	31.84411	8.06778	0.0	0.0	1	1.0	0.0	138.0	1	1.1	0.9				
	65	1	63.89935	9.19084	0.0	0.0	1	1.0	0.0	138.0	1	1.1	0.9				
	66	1	36.67929	10.61776	0.0	25.11053	1	1.0	0.0	138.0	1	1.1	0.9				
	67	1	28.70773	7.21002	0.0	0.0	1	1.0	0.0	138.0	1	1.1	0.9				
	68	1	28.62912	5.47036	0.0	0.0	1	1.0	0.0	138.0	1	1.1	0.9				
	69	1	32.06763	8.09255	0.0	0.0	1	1.0	0.0	138.0	1	1.1	0.9				
	70	1	39.19616	3.9776	0.0	0.0	1	1.0	0.0	138.0	1	1.1	0.9				
	71	1	60.37454	8.47511	0.0	0.0	1	1.0	0.0	138.0	1	1.1	0.9				
	72	1	56.94691	9.93336	0.0	0.0	1	1.0	0.0	138.0	1	1.1	0.9				
	73	1	70.41472	10.3498	0.0	0.0	1	1.0	0.0	138.0	1	1.1	0.9				
	74	1	60.7583	25.73315	0.0	0.0	1	1.0	0.0	138.0	1	1.1	0.9				
	75	1	40.77538	8.40489	0.0	0.0	1	1.0	0.0	138.0	1	1.1	0.9				
	76	1	43.07126	4.30925	0.0	0.0	1	1.0	0.0	138.0	1	1.1	0.9				
	77	1	57.29571	18.33109	0.0	0.0	1	1.0	0.0	138.0	1	1.1	0.9				
	78	1	54.007	18.02825	0.0	0.0	1	1.0	0.0	138.0	1	1.1	0.9				
	79	1	54.26508	10.90256	0.0	0.0	1	1.0	0.0	138.0	1	1.1	0.9				
	80	1	46.06977	21.1901	0.0	0.0	1	1.0	0.0	138.0	1	1.1	0.9				
	81	1	54.50795	17.69387	0.0	0.0	1	1.0	0.0	138.0	1	1.1	0.9				
	82	1	111.64362	24.13123	0.0	0.0	1	1.0	0.0	138.0	1	1.1	0.9				
	83	1	101.04494	24.90565	0.0	0.0	1	1.0	0.0	138.0	1	1.1	0.9				
	84	1	56.11057	11.57175	0.0	0.0	1	1.0	0.0	138.0	1	1.1	0.9				
	85	1	32.55034	12.18185	0.0	0.0	1	1.0	0.0	138.0	1	1.1	0.9				
	86	1	59.54523	10.88469	0.0	0.0	1	1.0	0.0	138.0	1	1.1	0.9				
	87	1	65.98171	22.6301	0.0	0.0	1	1.0	0.0	138.0	1	1.1	0.9				
	88	1	47.3434	10.03957	0.0	0.0	1	1.0	0.0	138.0	1	1.1	0.9				
	89	1	74.81833	17.49488	0.0	0.0	1	1.0	0.0	138.0	1	1.1	0.9				
	90	1	0.0	0.0	0.0	0.0	1	1.0	0.0	345.0	1	1.1	0.9				
	91	1	0.0	0.0	0.0	0.0	1	1.0	0.0	138.0	1	1.1	0.9				
	92	1	106.47708	17.9372	0.0	0.0	1	1.0	0.0	345.0	1	1.1	0.9				
	93	1	40.21293	5.30278	0.0	0.0	1	1.0	0.0	138.0	1	1.1	0.9				
	94	1	46.5641	6.11928	0.0	0.0	1	1.0	0.0	138.0	1	1.1	0.9				
	95	1	46.01027	23.12654	0.0	0.0	1	1.0	0.0	138.0	1	1.1	0.9				
	96	1	33.93057	6.33543	0.0	0.0	1	1.0	0.0	138.0	1	1.1	0.9				
	97	1	0.0	0.0	0.0	0.0	1	1.0	0.0	345.0	1	1.1	0.9				
	98	1	0.0	0.0	0.0	0.0	1	1.0	0.0	138.0	1	1.1	0.9				
	99	1	97.74846	38.28272	0.0	0.0	1	1.0	0.0	345.0	1	1.1	0.9				
	100	1	38.55452	12.14158	0.0	0.0	1	1.0	0.0	138.0	1	1.1	0.9				
	101	1	45.16153	22.8805	0.0	0.0	1	1.0	0.0	138.0	1	1.1	0.9				
	102	1	29.18628	7.81449	0.0	0.0	1	1.0	0.0	138.0	1	1.1	0.9				
	103	1	34.30703	9.79684	0.0	0.0	1	1.0	0.0	138.0	1	1.1	0.9				
	104	1	24.26599	5.5636	0.0	0.0	1	1.0	0.0	138.0	1	1.1	0.9				
	105	1	39.917	11.44117	0.0	0.0	1	1.0	0.0	138.0	1	1.1	0.9				
	106	1	0.0	0.0	0.0	0.0	1	1.0	0.0	345.0	1	1.1	0.9				
	107	1	75.51367	1.33913	0.0	0.0	1	1.0	0.0	138.0	1	1.1	0.9				
	108	1	0.0	0.0	0.0	0.0	1	1.0	0.0	345.0	1	1.1	0.9				
	109	1	49.64731	13.46196	0.0	24.79285	1	1.0	0.0	138.0	1	1.1	0.9				
	110	1	54.65649	8.32867	0.0	0.0	1	1.0	0.0	138.0	1	1.1	0.9				
	111	1	93.17204	20.32706	0.0	0.0	1	1.0	0.0	138.0	1	1.1	0.9				
	112	1	99.66883	59.00412	0.0	0.0	1	1.0	0.0	138.0	1	1.1	0.9				
	113	1	52.67078	21.3247	0.0	0.0	1	1.0	0.0	138.0	1	1.1	0.9				
	114	1	40.69928	12.37229	0.0	0.0	1	1.0	0.0	138.0	1	1.1	0.9				
	115	1	77.71488	14.88003	0.0	0.0	1	1.0	0.0	138.0	1	1.1	0.9				
	116	1	88.03808	18.35864	0.0	52.80848	1	1.0	0.0	138.0	1	1.1	0.9				
	117	1	68.18258	7.6681	0.0	0.0	1	1.0	0.0	138.0	1	1.1	0.9				
	118	1	92.36012	11.40737	0.0	0.0	1	1.0	0.0	138.0	1	1.1	0.9				
	119	1	0.0	0.0	0.0	0.0	1	1.0	0.0	345.0	1	1.1	0.9				
	120	1	85.81686	23.337	0.0	0.0	1	1.0	0.0	138.0	1	1.1	0.9				
	121	1	0.0	0.0	0.0	0.0	1	1.0	0.0	345.0	1	1.1	0.9				
	122	1	54.3972	9.09234	0.0	0.0	1	1.0	0.0	138.0	1	1.1	0.9				
	123	1	71.14737	33.99319	0.0	0.0	1	1.0	0.0	138.0	1	1.1	0.9				
	124	1	83.92672	7.34498	0.0	0.0	1	1.0	0.0	138.0	1	1.1	0.9				
	125	1	83.15505	31.19383	0.0	0.0	1	1.0	0.0	138.0	1	1.1	0.9				
	126	1	36.25305	3.66605	0.0	0.0	1	1.0	0.0	138.0	1	1.1	0.9				
	127	1	29.81834	16.40728	0.0	0.0	1	1.0	0.0	138.0	1	1.1	0.9				
	128	1	35.78263	2.42284	0.0	0.0	1	1.0	0.0	138.0	1	1.1	0.9				
	129	1	51.8093	15.49727	0.0	0.0	1	1.0	0.0	138.0	1	1.1	0.9				
	130	1	31.2514	13.83211	0.0	0.0	1	1.0	0.0	138.0	1	1.1	0.9				
	131	1	34.95893	7.63634	0.0	0.0	1	1.0	0.0	138.0	1	1.1	0.9				
	132	1	52.06332	19.1481	0.0	49.70244	1	1.0	0.0	138.0	1	1.1	0.9				
	133	1	19.63689	8.99446	0.0	0.0	1	1.0	0.0	138.0	1	1.1	0.9				
	134	1	38.94887	4.35938	0.0	0.0	1	1.0	0.0	138.0	1	1.1	0.9				
	135	1	0.0	0.0	0.0	21.73288	1	1.0	0.0	345.0	1	1.1	0.9				
	136	1	0.0	0.0	0.0	0.0	1	1.0	0.0	138.0	1	1.1	0.9				
	137	1	51.54586	9.90354	0.0	0.0	1	1.0	0.0	345.0	1	1.1	0.9				
	138	1	58.67666	17.43049	0.0	94.76676	1	1.0	0.0	138.0	1	1.1	0.9				
	139	1	71.4838	14.1832	0.0	0.0	1	1.0	0.0	138.0	1	1.1	0.9				
	140	1	72.49661	22.65969	0.0	0.0	1	1.0	0.0	138.0	1	1.1	0.9				
	141	1	81.9518	40.60647	0.0	0.0	1	1.0	0.0	138.0	1	1.1	0.9				
	142	1	22.84794	4.50291	0.0	0.0	1	1.0	0.0	138.0	1	1.1	0.9				
	143	1	42.56316	21.29388	0.0	0.0	1	1.0	0.0	138.0	1	1.1	0.9				
	144	1	35.49493	8.37043	0.0	0.0	1	1.0	0.0	138.0	1	1.1	0.9				
	145	1	78.91774	30.00508	0.0	0.0	1	1.0	0.0	138.0	1	1.1	0.9				
	146	1	44.64931	13.40111	0.0	0.0	1	1.0	0.0	138.0	1	1.1	0.9				
	147	1	65.73686	21.35948	0.0	0.0	1	1.0	0.0	138.0	1	1.1	0.9				
	148	1	87.01073	41.88842	0.0	0.0	1	1.0	0.0	138.0	1	1.1	0.9				
	149	1	109.81274	17.0128	0.0	0.0	1	1.0	0.0	138.0	1	1.1	0.9				
	150	1	169.63527	52.74781	0.0	0.0	1	1.0	0.0	138.0	1	1.1	0.9				
	151	1	0.0	0.0	0.0	0.0	1	1.0	0.0	345.0	1	1.1	0.9				
	152	1	0.0	0.0	0.0	0.0	1	1.0	0.0	138.0	1	1.1	0.9				
	153	1	157.10017	35.91191	0.0	0.0	1	1.0	0.0	345.0	1	1.1	0.9				
	154	1	53.45658	10.63611	0.0	0.0	1	1.0	0.0	138.0	1	1.1	0.9				
	155	1	90.3618	14.922	0.0	0.0	1	1.0	0.0	138.0	1	1.1	0.9				
	156	1	73.74289	28.15426	0.0	118.04671	1	1.0	0.0	138.0	1	1.1	0.9				
	157	1	37.96547	26.03983	0.0	0.0	1	1.0	0.0	138.0	1	1.1	0.9				
	158	1	99.23241	16.6326	0.0	0.0	1	1.0	0.0	138.0	1	1.1	0.9				
	159	1	73.40689	14.44084	0.0	0.0	1	1.0	0.0	138.0	1	1.1	0.9				
	160	1	36.39668	14.79221	0.0	0.0	1	1.0	0.0	138.0	1	1.1	0.9				
	161	1	28.65867	5.70807	0.0	0.0	1	1.0	0.0	138.0	1	1.1	0.9				
	162	1	26.35587	8.72997	0.0	0.0	1	1.0	0.0	138.0	1	1.1	0.9				
	163	1	36.96297	3.89053	0.0	0.0	1	1.0	0.0	138.0	1	1.1	0.9				
	164	1	39.57328	5.63349	0.0	0.0	1	1.0	0.0	138.0	1	1.1	0.9				
	165	1	124.00109	13.81438	0.0	0.0	1	1.0	0.0	138.0	1	1.1	0.9				
	166	1	74.25287	16.42966	0.0	0.0	1	1.0	0.0	138.0	1	1.1	0.9				
	167	1	40.83016	10.04079	0.0	0.0	1	1.0	0.0	138.0	1	1.1	0.9				
	168	1	72.90662	23.71429	0.0	34.25185	1	1.0	0.0	138.0	1	1.1	0.9				
	169	1	40.18661	21.45574	0.0	0.0	1	1.0	0.0	138.0	1	1.1	0.9				
	170	1	99.31997	23.82538	0.0	0.0	1	1.0	0.0	138.0	1	1.1	0.9				
	171	1	115.38626	31.22093	0.0	0.0	1	1.0	0.0	138.0	1	1.1	0.9				
	172	1	63.6424	19.89552	0.0	0.0	1	1.0	0.0	138.0	1	1.1	0.9				
	173	1	33.99231	4.57717	0.0	0.0	1	1.0	0.0	138.0	1	1.1	0.9				
	174	1	136.21012	69.07718	0.0	0.0	1	1.0	0.0	138.0	1	1.1	0.9				
	175	1	98.37927	4.09445	0.0	0.0	1	1.0	0.0	138.0	1	1.1	0.9				
	176	1	68.80767	42.52036	0.0	273.9097	1	1.0	0.0	138.0	1	1.1	0.9				
	177	1	165.22394	27.01824	0.0	0.0	1	1.0	0.0	138.0	1	1.1	0.9				
	178	1	190.80659	44.51571	0.0	0.0	1	1.0	0.0	138.0	1	1.1	0.9				
	179	1	75.32883	20.81102	0.0	0.0	1	1.0	0.0	138.0	1	1.1	0.9				
	180	1	42.2158	6.39047	0.0	0.0	1	1.0	0.0	138.0	1	1.1	0.9				
	181	1	50.83648	8.98756	0.0	0.00059	1	1.0	0.0	138.0	1	1.1	0.9				
	182	1	112.80944	14.46946	0.0	0.0	1	1.0	0.0	138.0	1	1.1	0.9				
	183	1	93.87775	19.6133	0.0	0.0	1	1.0	0.0	138.0	1	1.1	0.9				
	184	1	76.91671	31.7448	0.0	0.0	1	1.0	0.0	138.0	1	1.1	0.9				
	185	1	93.26853	3.43813	0.0	0.0	1	1.0	0.0	138.0	1	1.1	0.9				
	186	1	92.22111	21.67286	0.0	0.0	1	1.0	0.0	138.0	1	1.1	0.9				
	187	1	163.8891	73.25672	0.0	0.0	1	1.0	0.0	138.0	1	1.1	0.9				
	188	1	53.14681	14.76276	0.0	0.0	1	1.0	0.0	138.0	1	1.1	0.9				
	189	1	39.0074	3.64692	0.0	0.0	1	1.0	0.0	138.0	1	1.1	0.9				
	190	1	0.0	0.0	0.0	0.0	1	1.0	0.0	345.0	1	1.1	0.9				
	191	1	0.0	0.0	0.0	0.0	1	1.0	0.0	138.0	1	1.1	0.9				
	192	1	131.01594	31.62305	0.0	0.0	1	1.0	0.0	345.0	1	1.1	0.9				
	193	1	77.65605	23.36279	0.0	0.0	1	1.0	0.0	138.0	1	1.1	0.9				
	194	1	70.68182	16.97447	0.0	0.0	1	1.0	0.0	138.0	1	1.1	0.9				
	195	1	80.465	14.65443	0.0	0.0	1	1.0	0.0	138.0	1	1.1	0.9				
	196	1	68.67858	13.07046	0.0	0.0	1	1.0	0.0	138.0	1	1.1	0.9				
	197	1	38.36987	7.19777	0.0	0.0	1	1.0	0.0	138.0	1	1.1	0.9				
	198	1	52.28371	19.78762	0.0	0.0	1	1.0	0.0	138.0	1	1.1	0.9				
	199	1	66.67925	2.50586	0.0	-17.21645	1	1.0	0.0	138.0	1	1.1	0.9				
	200	1	61.92285	16.82206	0.0	22.90298	1	1.0	0.0	138.0	1	1.1	0.9				
	201	1	75.0853	10.67384	0.0	0.0	1	1.0	0.0	138.0	1	1.1	0.9				
	202	1	75.44548	7.4764	0.0	0.0	1	1.0	0.0	138.0	1	1.1	0.9				
	203	1	87.3117	47.77642	0.0	47.83705	1	1.0	0.0	138.0	1	1.1	0.9				
	204	1	48.88384	13.02999	0.0	0.0	1	1.0	0.0	138.0	1	1.1	0.9				
	205	1	49.60983	37.26848	0.0	39.99997	1	1.0	0.0	138.0	1	1.1	0.9				
	206	1	34.43499	11.71327	0.0	0.0	1	1.0	0.0	138.0	1	1.1	0.9				
	207	1	73.01036	14.02102	0.0	0.0	1	1.0	0.0	138.0	1	1.1	0.9				
	208	1	42.8435	8.22486	0.0	0.0	1	1.0	0.0	138.0	1	1.1	0.9				
	209	1	102.283	14.09309	0.0	0.0	1	1.0	0.0	138.0	1	1.1	0.9				
	210	1	40.28326	13.54975	0.0	0.0	1	1.0	0.0	138.0	1	1.1	0.9				
	211	1	55.53377	10.4782	0.0	0.0	1	1.0	0.0	138.0	1	1.1	0.9				
	212	1	42.93196	9.46171	0.0	0.0	1	1.0	0.0	138.0	1	1.1	0.9				
	213	1	118.43144	25.48861	0.0	0.0	1	1.0	0.0	138.0	1	1.1	0.9				
	214	1	76.77349	36.00875	0.0	333.00759	1	1.0	0.0	138.0	1	1.1	0.9				
	215	1	52.43817	15.21453	0.0	0.0	1	1.0	0.0	138.0	1	1.1	0.9				
	216	1	63.71036	17.74552	0.0	0.0	1	1.0	0.0	138.0	1	1.1	0.9				
	217	1	64.32062	24.07634	0.0	0.0	1	1.0	0.0	138.0	1	1.1	0.9				
	218	1	63.52348	30.60969	0.0	42.6781	1	1.0	0.0	138.0	1	1.1	0.9				
	219	1	28.92184	7.13394	0.0	28.29996	1	1.0	0.0	138.0	1	1.1	0.9				
	220	1	38.5502	13.16283	0.0	0.0	1	1.0	0.0	138.0	1	1.1	0.9				
	221	1	55.42336	9.89284	0.0	0.0	1	1.0	0.0	138.0	1	1.1	0.9				
	222	1	71.25082	18.7933	0.0	0.0	1	1.0	0.0	138.0	1	1.1	0.9				
	223	1	98.25231	29.00056	0.0	0.0	1	1.0	0.0	138.0	1	1.1	0.9				
	224	1	109.62065	24.02394	0.0	0.0	1	1.0	0.0	138.0	1	1.1	0.9				
	225	1	16.26082	0.91372	0.0	0.0	1	1.0	0.0	138.0	1	1.1	0.9				
	226	1	45.48666	6.48912	0.0	50.79879	1	1.0	0.0	138.0	1	1.1	0.9				
	227	1	64.36743	15.62611	0.0	0.0	1	1.0	0.0	138.0	1	1.1	0.9				
	228	1	57.16074	9.04856	0.0	0.0	1	1.0	0.0	138.0	1	1.1	0.9				
	229	1	43.34797	9.95984	0.0	0.0	1	1.0	0.0	138.0	1	1.1	0.9				
	230	1	29.83468	3.24967	0.0	0.0	1	1.0	0.0	138.0	1	1.1	0.9				
	231	1	0.0	0.0	0.0	0.0	1	1.0	0.0	345.0	1	1.1	0.9				
	232	1	0.0	0.0	0.0	0.0	1	1.0	0.0	138.0	1	1.1	0.9				
	233	1	61.50342	6.17195	0.0	0.0	1	1.0	0.0	345.0	1	1.1	0.9				
	234	1	122.12821	6.54382	0.0	0.0	1	1.0	0.0	138.0	1	1.1	0.9				
	235	1	65.33816	29.23339	0.0	48.37384	1	1.0	0.0	138.0	1	1.1	0.9				
	236	1	49.25923	13.69224	0.0	0.0	1	1.0	0.0	138.0	1	1.1	0.9				
	237	1	23.29848	8.55876	0.0	0.0	1	1.0	0.0	138.0	1	1.1	0.9				
	238	1	77.0111	8.66063	0.0	0.0	1	1.0	0.0	138.0	1	1.1	0.9				
	239	1	108.3489	32.45142	0.0	0.0	1	1.0	0.0	138.0	1	1.1	0.9				
	240	1	44.62096	8.68243	0.0	54.7097	1	1.0	0.0	138.0	1	1.1	0.9				
	241	1	35.41051	5.9169	0.0	0.0	1	1.0	0.0	138.0	1	1.1	0.9				
	242	1	71.33698	12.84123	0.0	0.0	1	1.0	0.0	138.0	1	1.1	0.9				
	243	1	115.31549	18.96142	0.0	0.0	1	1.0	0.0	138.0	1	1.1	0.9				
	244	1	98.93219	26.15476	0.0	0.0	1	1.0	0.0	138.0	1	1.1	0.9				
	245	1	33.43879	10.55839	0.0	39.93393	1	1.0	0.0	138.0	1	1.1	0.9				
	246	1	132.70426	60.79843	0.0	0.0	1	1.0	0.0	138.0	1	1.1	0.9				
	247	1	44.89235	2.10957	0.0	0.0	1	1.0	0.0	138.0	1	1.1	0.9				
	248	1	48.91358	10.15401	0.0	106.11309	1	1.0	0.0	138.0	1	1.1	0.9				
	249	1	54.2817	11.31823	0.0	0.0	1	1.0	0.0	138.0	1	1.1	0.9				
	250	1	18.77103	4.94611	0.0	0.0	1	1.0	0.0	138.0	1	1.1	0.9				
	251	1	112.55859	6.96147	0.0	0.0	1	1.0	0.0	138.0	1	1.1	0.9				
	252	1	0.0	0.0	0.0	0.0	1	1.0	0.0	345.0	1	1.1	0.9				
	253	1	0.0	0.0	0.0	0.0	1	1.0	0.0	138.0	1	1.1	0.9				
	254	1	106.54204	55.62248	0.0	0.0	1	1.0	0.0	345.0	1	1.1	0.9				
	255	1	52.50334	23.15461	0.0	64.52141	1	1.0	0.0	138.0	1	1.1	0.9				
	256	1	83.6972	27.02769	0.0	0.0	1	1.0	0.0	138.0	1	1.1	0.9				
	257	1	73.13096	6.38894	0.0	-25.18925	1	1.0	0.0	138.0	1	1.1	0.9				
	258	1	83.66398	32.08282	0.0	-52.5389	1	1.0	0.0	138.0	1	1.1	0.9				
	259	1	65.65358	32.51961	0.0	19.75864	1	1.0	0.0	138.0	1	1.1	0.9				
	260	1	73.66721	19.88355	0.0	0.0	1	1.0	0.0	138.0	1	1.1	0.9				
	261	1	61.26821	10.71222	0.0	0.0	1	1.0	0.0	138.0	1	1.1	0.9				
	262	1	54.98175	7.00847	0.0	0.0	1	1.0	0.0	138.0	1	1.1	0.9				
	263	1	31.24608	7.65044	0.0	0.0	1	1.0	0.0	138.0	1	1.1	0.9				
	264	1	24.58151	13.05744	0.0	0.0	1	1.0	0.0	138.0	1	1.1	0.9				
	265	1	32.18414	9.04312	0.0	0.0	1	1.0	0.0	138.0	1	1.1	0.9				
	266	1	52.08566	5.86242	0.0	0.0	1	1.0	0.0	138.0	1	1.1	0.9				
	267	1	76.00083	12.38587	0.0	0.0	1	1.0	0.0	138.0	1	1.1	0.9				
	268	1	96.66132	35.3855	0.0	0.0	1	1.0	0.0	138.0	1	1.1	0.9				
	269	1	29.57783	11.57261	0.0	0.0	1	1.0	0.0	138.0	1	1.1	0.9				
	270	1	28.80683	3.81968	0.0	0.0	1	1.0	0.0	138.0	1	1.1	0.9				
	271	1	24.51849	11.95717	0.0	0.0	1	1.0	0.0	138.0	1	1.1	0.9				
	272	2	94.87412	33.97802	0.0	0.0	1	1.0	0.0	138.0	1	1.1	0.9				
	273	1	0.0	0.0	0.0	0.0	1	1.0	0.0	345.0	1	1.1	0.9				
	274	1	19.85751	3.23277	0.0	0.0	1	1.0	0.0	138.0	1	1.1	0.9				
	275	1	0.0	0.0	0.0	0.0	1	1.0	0.0	13.8	1	1.1	0.9				
	276	2	0.0	0.0	0.0	0.0	1	1.0	0.0	18.0	1	1.1	0.9				
	277	2	21.5876	1.49267	0.0	0.0	1	1.0	0.0	138.0	1	1.1	0.9				
	278	1	0.0	0.0	0.0	0.0	1	1.0	0.0	345.0	1	1.1	0.9				
	279	1	65.18106	28.3094	0.0	0.0	1	1.0	0.0	138.0	1	1.1	0.9				
	280	2	0.0	0.0	0.0	0.0	1	1.0	0.0	13.8	1	1.1	0.9				
	281	1	0.0	0.0	0.0	0.0	1	1.0	0.0	20.0	1	1.1	0.9				
	282	1	0.0	0.0	0.0	0.0	1	1.0	0.0	345.0	1	1.1	0.9				
	283	1	46.82223	9.30324	0.0	0.0	1	1.0	0.0	138.0	1	1.1	0.9				
	284	2	0.0	0.0	0.0	0.0	1	1.0	0.0	13.8	1	1.1	0.9				
	285	2	0.0	0.0	0.0	0.0	1	1.0	0.0	13.8	1	1.1	0.9				
	286	2	0.0	0.0	0.0	0.0	1	1.0	0.0	13.8	1	1.1	0.9				
	287	1	0.0	0.0	0.0	0.0	1	1.0	0.0	13.8	1	1.1	0.9				
	288	1	0.0	0.0	0.0	0.0	1	1.0	0.0	18.0	1	1.1	0.9				
	289	2	0.0	0.0	0.0	0.0	1	1.0	0.0	20.0	1	1.1	0.9				
	290	1	0.0	0.0	0.0	0.0	1	1.0	0.0	345.0	1	1.1	0.9				
	291	1	0.0	0.0	0.0	0.0	1	1.0	0.0	138.0	1	1.1	0.9				
	292	2	0.0	0.0	0.0	0.0	1	1.0	0.0	13.8	1	1.1	0.9				
	293	1	82.87911	23.74862	0.0	0.0	1	1.0	0.0	138.0	1	1.1	0.9				
	294	1	42.32666	7.65168	0.0	0.0	1	1.0	0.0	138.0	1	1.1	0.9				
	295	1	0.0	0.0	0.0	0.0	1	1.0	0.0	345.0	1	1.1	0.9				
	296	1	26.43792	12.15536	0.0	0.0	1	1.0	0.0	138.0	1	1.1	0.9				
	297	2	0.0	0.0	0.0	0.0	1	1.0	0.0	22.0	1	1.1	0.9				
	298	2	0.0	0.0	0.0	0.0	1	1.0	0.0	13.8	1	1.1	0.9				
	299	1	0.0	0.0	0.0	0.0	1	1.0	0.0	13.8	1	1.1	0.9				
	300	2	0.0	0.0	0.0	0.0	1	1.0	0.0	13.8	1	1.1	0.9				
	301	1	0.0	0.0	0.0	0.0	1	1.0	0.0	20.0	1	1.1	0.9				
	302	2	0.0	0.0	0.0	0.0	1	1.0	0.0	13.8	1	1.1	0.9				
	303	2	0.0	0.0	0.0	0.0	1	1.0	0.0	345.0	1	1.1	0.9				
	304	1	0.0	0.0	0.0	0.0	1	1.0	0.0	138.0	1	1.1	0.9				
	305	1	17.47165	6.53541	0.0	0.0	1	1.0	0.0	345.0	1	1.1	0.9				
	306	2	24.70798	6.94471	0.0	0.0	1	1.0	0.0	138.0	1	1.1	0.9				
	307	2	20.78855	8.47801	0.0	0.0	1	1.0	0.0	138.0	1	1.1	0.9				
	308	1	0.0	0.0	0.0	0.0	1	1.0	0.0	138.0	1	1.1	0.9				
	309	1	0.0	0.0	0.0	0.0	1	1.0	0.0	345.0	1	1.1	0.9				
	310	1	26.56958	10.83474	0.0	0.0	1	1.0	0.0	138.0	1	1.1	0.9				
	311	1	0.0	0.0	0.0	0.0	1	1.0	0.0	13.8	1	1.1	0.9				
	312	2	0.0	0.0	0.0	0.0	1	1.0	0.0	22.0	1	1.1	0.9				
	313	3	0.0	0.0	0.0	0.0	1	1.0	0.0	18.0	1	1.1	0.9				
	314	1	0.0	0.0	0.0	0.0	1	1.0	0.0	345.0	1	1.1	0.9				
	315	1	28.82122	6.6251	0.0	0.0	1	1.0	0.0	138.0	1	1.1	0.9				
	316	2	0.0	0.0	0.0	0.0	1	1.0	0.0	13.8	1	1.1	0.9				
	317	1	0.0	0.0	0.0	0.0	1	1.0	0.0	13.8	1	1.1	0.9				
	318	2	0.0	0.0	0.0	0.0	1	1.0	0.0	18.0	1	1.1	0.9				
	319	2	0.0	0.0	0.0	0.0	1	1.0	0.0	13.8	1	1.1	0.9				
	320	1	0.0	0.0	0.0	0.0	1	1.0	0.0	22.0	1	1.1	0.9				
	321	1	0.0	0.0	0.0	0.0	1	1.0	0.0	18.0	1	1.1	0.9				
	322	1	0.0	0.0	0.0	0.0	1	1.0	0.0	345.0	1	1.1	0.9				
	323	1	6.10267	2.07058	0.0	0.0	1	1.0	0.0	138.0	1	1.1	0.9				
	324	1	0.0	0.0	0.0	0.0	1	1.0	0.0	18.0	1	1.1	0.9				
	325	2	0.0	0.0	0.0	0.0	1	1.0	0.0	18.0	1	1.1	0.9				
	326	2	0.0	0.0	0.0	0.0	1	1.0	0.0	18.0	1	1.1	0.9				
	327	1	0.0	0.0	0.0	0.0	1	1.0	0.0	18.0	1	1.1	0.9				
	328	2	0.0	0.0	0.0	0.0	1	1.0	0.0	13.8	1	1.1	0.9				
	329	2	0.0	0.0	0.0	0.0	1	1.0	0.0	13.8	1	1.1	0.9				
	330	2	28.6071	6.9527	0.0	0.0	1	1.0	0.0	138.0	1	1.1	0.9				
	331	1	0.0	0.0	0.0	0.0	1	1.0	0.0	138.0	1	1.1	0.9				
	332	1	0.0	0.0	0.0	0.0	1	1.0	0.0	345.0	1	1.1	0.9				
	333	1	65.99873	3.42223	0.0	0.0	1	1.0	0.0	138.0	1	1.1	0.9				
	334	2	0.0	0.0	0.0	0.0	1	1.0	0.0	24.0	1	1.1	0.9				
	335	1	0.0	0.0	0.0	0.0	1	1.0	0.0	18.0	1	1.1	0.9				
	336	1	0.0	0.0	0.0	0.0	1	1.0	0.0	345.0	1	1.1	0.9				
	337	1	6.17734	1.43098	0.0	0.0	1	1.0	0.0	138.0	1	1.1	0.9				
	338	2	0.0	0.0	0.0	0.0	1	1.0	0.0	18.0	1	1.1	0.9				
	339	2	0.0	0.0	0.0	0.0	1	1.0	0.0	13.8	1	1.1	0.9				
	340	1	0.0	0.0	0.0	0.0	1	1.0	0.0	13.8	1	1.1	0.9				
	341	2	0.0	0.0	0.0	0.0	1	1.0	0.0	13.8	1	1.1	0.9				
	342	1	7.32349	2.47411	0.0	0.0	1	1.0	0.0	138.0	1	1.1	0.9				
	343	1	0.0	0.0	0.0	0.0	1	1.0	0.0	22.0	1	1.1	0.9				
	344	2	0.0	0.0	0.0	0.0	1	1.0	0.0	13.8	1	1.1	0.9				
	345	1	0.0	0.0	0.0	0.0	1	1.0	0.0	13.8	1	1.1	0.9				
	346	2	8.07075	2.16812	0.0	0.0	1	1.0	0.0	138.0	1	1.1	0.9				
	347	2	0.0	0.0	0.0	0.0	1	1.0	0.0	345.0	1	1.1	0.9				
	348	1	0.0	0.0	0.0	0.0	1	1.0	0.0	138.0	1	1.1	0.9				
	349	1	0.0	0.0	0.0	0.0	1	1.0	0.0	345.0	1	1.1	0.9				
	350	2	0.0	0.0	0.0	0.0	1	1.0	0.0	345.0	1	1.1	0.9				
	351	2	0.0	0.0	0.0	0.0	1	1.0	0.0	138.0	1	1.1	0.9				
	352	1	14.16372	5.06313	0.0	0.0	1	1.0	0.0	345.0	1	1.1	0.9				
	353	1	4.95433	0.23688	0.0	0.0	1	1.0	0.0	138.0	1	1.1	0.9				
	354	2	0.0	0.0	0.0	0.0	1	1.0	0.0	18.0	1	1.1	0.9				
	355	1	0.0	0.0	0.0	0.0	1	1.0	0.0	138.0	1	1.1	0.9				
	356	2	32.8553	5.0756	0.0	0.0	1	1.0	0.0	138.0	1	1.1	0.9				
	357	2	46.85709	33.21798	0.0	0.0	1	1.0	0.0	138.0	1	1.1	0.9				
	358	2	22.1654	8.527	0.0	0.0	1	1.0	0.0	138.0	1	1.1	0.9				
	359	2	54.23048	6.93837	0.0	0.0	1	1.0	0.0	138.0	1	1.1	0.9				
	360	1	0.0	0.0	0.0	0.0	1	1.0	0.0	345.0	1	1.1	0.9				
	361	1	43.19263	10.24912	0.0	0.0	1	1.0	0.0	138.0	1	1.1	0.9				
	362	2	0.0	0.0	0.0	0.0	1	1.0	0.0	13.8	1	1.1	0.9				
	363	2	0.0	0.0	0.0	0.0	1	1.0	0.0	13.8	1	1.1	0.9				
	364	1	0.0	0.0	0.0	0.0	1	1.0	0.0	13.8	1	1.1	0.9				
	365	2	0.0	0.0	0.0	0.0	1	1.0	0.0	13.8	1	1.1	0.9				
	366	1	5.12256	1.26926	0.0	0.0	1	1.0	0.0	138.0	1	1.1	0.9				
	367	2	0.0	0.0	0.0	0.0	1	1.0	0.0	13.8	1	1.1	0.9				
	368	2	0.0	0.0	0.0	0.0	1	1.0	0.0	13.8	1	1.1	0.9				
	369	1	0.0	0.0	0.0	0.0	1	1.0	0.0	13.8	1	1.1	0.9				
	370	1	17.01444	4.46318	0.0	0.0	1	1.0	0.0	138.0	1	1.1	0.9				
	371	2	0.0	0.0	0.0	0.0	1	1.0	0.0	13.8	1	1.1	0.9				
	372	2	0.0	0.0	0.0	0.0	1	1.0	0.0	18.0	1	1.1	0.9				
	373	1	0.0	0.0	0.0	0.0	1	1.0	0.0	138.0	1	1.1	0.9				
	374	1	0.09121	0.02432	0.0	39.58831	1	1.0	0.0	138.0	1	1.1	0.9				
	375	2	0.0	0.0	0.0	0.0	1	1.0	0.0	13.8	1	1.1	0.9				
	376	1	1.61824	0.24085	0.0	0.0	1	1.0	0.0	138.0	1	1.1	0.9				
	377	1	12.9087	5.27203	0.0	0.0	1	1.0	0.0	138.0	1	1.1	0.9				
	378	2	0.0	0.0	0.0	0.0	1	1.0	0.0	18.0	1	1.1	0.9				
	379	2	0.0	0.0	0.0	0.0	1	1.0	0.0	13.8	1	1.1	0.9				
	380	2	0.0	0.0	0.0	0.0	1	1.0	0.0	18.0	1	1.1	0.9				
	381	2	0.0	0.0	0.0	0.0	1	1.0	0.0	18.0	1	1.1	0.9				
	382	2	0.0	0.0	0.0	0.0	1	1.0	0.0	138.0	1	1.1	0.9				
	383	1	79.31553	17.39703	0.0	-5.87557	1	1.0	0.0	138.0	1	1.1	0.9				
	384	2	20.46594	11.80724	0.0	0.0	1	1.0	0.0	138.0	1	1.1	0.9				
	385	1	0.0	0.0	0.0	-9.49933	1	1.0	0.0	138.0	1	1.1	0.9				
	386	2	0.0	0.0	0.0	0.0	1	1.0	0.0	345.0	1	1.1	0.9				
	387	1	4.32603	0.71404	0.0	0.0	1	1.0	0.0	138.0	1	1.1	0.9				
	388	1	0.0	0.0	0.0	0.0	1	1.0	0.0	345.0	1	1.1	0.9				
	389	1	0.0	0.0	0.0	0.0	1	1.0	0.0	345.0	1	1.1	0.9				
	390	1	24.39938	4.96123	0.0	0.0	1	1.0	0.0	138.0	1	1.1	0.9				
	391	2	0.0	0.0	0.0	0.0	1	1.0	0.0	13.8	1	1.1	0.9				
	392	1	0.0	0.0	0.0	0.0	1	1.0	0.0	18.0	1	1.1	0.9				
	393	1	0.0	0.0	0.0	0.0	1	1.0	0.0	24.0	1	1.1	0.9				
	394	1	0.0	0.0	0.0	0.0	1	1.0	0.0	13.8	1	1.1	0.9				
	395	2	0.0	0.0	0.0	0.0	1	1.0	0.0	345.0	1	1.1	0.9				
	396	2	0.0	0.0	0.0	0.0	1	1.0	0.0	138.0	1	1.1	0.9				
	397	1	51.74871	3.93592	0.0	0.0	1	1.0	0.0	345.0	1	1.1	0.9				
	398	2	0.0	0.0	0.0	0.0	1	1.0	0.0	138.0	1	1.1	0.9				
	399	2	0.0	0.0	0.0	0.0	1	1.0	0.0	138.0	1	1.1	0.9				
	400	1	0.0	0.0	0.0	0.0	1	1.0	0.0	138.0	1	1.1	0.9				
	401	1	0.0	0.0	0.0	0.0	1	1.0	0.0	20.0	1	1.1	0.9				
	402	2	0.0	0.0	0.0	0.0	1	1.0	0.0	18.0	1	1.1	0.9				
	403	1	0.0	0.0	0.0	0.0	1	1.0	0.0	138.0	1	1.1	0.9				
	404	2	0.0	0.0	0.0	0.0	1	1.0	0.0	138.0	1	1.1	0.9				
	405	1	0.0	0.0	0.0	0.0	1	1.0	0.0	345.0	1	1.1	0.9				
	406	1	0.0	0.0	0.0	0.0	1	1.0	0.0	138.0	1	1.1	0.9				
	407	2	0.0	0.0	0.0	0.0	1	1.0	0.0	13.2	1	1.1	0.9				
	408	2	0.0	0.0	0.0	0.0	1	1.0	0.0	20.0	1	1.1	0.9				
	409	2	0.0	0.0	0.0	0.0	1	1.0	0.0	13.8	1	1.1	0.9				
	410	2	0.0	0.0	0.0	0.0	1	1.0	0.0	13.8	1	1.1	0.9				
	411	2	0.0	0.0	0.0	0.0	1	1.0	0.0	18.0	1	1.1	0.9				
	412	2	0.0	0.0	0.0	0.0	1	1.0	0.0	18.0	1	1.1	0.9				
	413	2	0.0	0.0	0.0	0.0	1	1.0	0.0	138.0	1	1.1	0.9				
	414	1	0.0	0.0	0.0	0.0	1	1.0	0.0	345.0	1	1.1	0.9				
	415	1	0.0	0.0	0.0	0.0	1	1.0	0.0	138.0	1	1.1	0.9				
	416	1	0.0	0.0	0.0	0.0	1	1.0	0.0	18.0	1	1.1	0.9				
	417	2	0.0	0.0	0.0	0.0	1	1.0	0.0	13.8	1	1.1	0.9				
	418	1	0.0	0.0	0.0	0.0	1	1.0	0.0	13.8	1	1.1	0.9				
	419	2	0.0	0.0	0.0	0.0	1	1.0	0.0	13.8	1	1.1	0.9				
	420	2	0.0	0.0	0.0	0.0	1	1.0	0.0	18.0	1	1.1	0.9				
	421	2	0.0	0.0	0.0	0.0	1	1.0	0.0	138.0	1	1.1	0.9				
	422	1	0.0	0.0	0.0	0.0	1	1.0	0.0	345.0	1	1.1	0.9				
	423	1	0.0	0.0	0.0	0.0	1	1.0	0.0	138.0	1	1.1	0.9				
	424	2	0.0	0.0	0.0	0.0	1	1.0	0.0	13.8	1	1.1	0.9				
	425	1	0.0	0.0	0.0	0.0	1	1.0	0.0	13.8	1	1.1	0.9				
	426	2	0.0	0.0	0.0	0.0	1	1.0	0.0	13.8	1	1.1	0.9				
	427	2	0.0	0.0	0.0	0.0	1	1.0	0.0	13.8	1	1.1	0.9				
	428	1	0.0	0.0	0.0	0.0	1	1.0	0.0	18.0	1	1.1	0.9				
	429	1	0.0	0.0	0.0	0.0	1	1.0	0.0	345.0	1	1.1	0.9				
	430	1	0.0	0.0	0.0	0.0	1	1.0	0.0	138.0	1	1.1	0.9				
	431	2	0.0	0.0	0.0	0.0	1	1.0	0.0	13.8	1	1.1	0.9				
	432	2	0.0	0.0	0.0	0.0	1	1.0	0.0	13.8	1	1.1	0.9				
	433	2	0.0	0.0	0.0	0.0	1	1.0	0.0	18.0	1	1.1	0.9				
	434	2	0.0	0.0	0.0	0.0	1	1.0	0.0	22.0	1	1.1	0.9				
	435	1	0.0	0.0	0.0	0.0	1	1.0	0.0	345.0	1	1.1	0.9				
	436	1	0.0	0.0	0.0	0.0	1	1.0	0.0	138.0	1	1.1	0.9				
	437	1	0.0	0.0	0.0	0.0	1	1.0	0.0	24.0	1	1.1	0.9				
	438	1	0.0	0.0	0.0	0.0	1	1.0	0.0	13.8	1	1.1	0.9				
	439	2	0.0	0.0	0.0	0.0	1	1.0	0.0	13.8	1	1.1	0.9				
	440	2	0.0	0.0	0.0	0.0	1	1.0	0.0	13.8	1	1.1	0.9				
	441	2	0.0	0.0	0.0	0.0	1	1.0	0.0	138.0	1	1.1	0.9				
	442	1	0.0	0.0	0.0	0.0	1	1.0	0.0	138.0	1	1.1	0.9				
	443	1	0.0	0.0	0.0	0.0	1	1.0	0.0	13.8	1	1.1	0.9				
	444	2	0.0	0.0	0.0	0.0	1	1.0	0.0	13.8	1	1.1	0.9				
	445	1	0.0	0.0	0.0	0.0	1	1.0	0.0	138.0	1	1.1	0.9				
	446	1	0.0	0.0	0.0	0.0	1	1.0	0.0	345.0	1	1.1	0.9				
	447	1	0.0	0.0	0.0	0.0	1	1.0	0.0	138.0	1	1.1	0.9				
	448	2	0.0	0.0	0.0	0.0	1	1.0	0.0	13.8	1	1.1	0.9				
	449	2	0.0	0.0	0.0	0.0	1	1.0	0.0	18.0	1	1.1	0.9				
	450	2	0.0	0.0	0.0	0.0	1	1.0	0.0	24.0	1	1.1	0.9				
	451	2	0.0	0.0	0.0	0.0	1	1.0	0.0	18.0	1	1.1	0.9				
	452	2	0.0	0.0	0.0	0.0	1	1.0	0.0	13.8	1	1.1	0.9				
	453	2	0.0	0.0	0.0	0.0	1	1.0	0.0	138.0	1	1.1	0.9				
	454	1	0.0	0.0	0.0	0.0	1	1.0	0.0	345.0	1	1.1	0.9				
	455	1	0.0	0.0	0.0	0.0	1	1.0	0.0	138.0	1	1.1	0.9				
	456	2	0.0	0.0	0.0	0.0	1	1.0	0.0	20.0	1	1.1	0.9				
	457	2	0.0	0.0	0.0	0.0	1	1.0	0.0	13.8	1	1.1	0.9				
	458	2	0.0	0.0	0.0	0.0	1	1.0	0.0	24.0	1	1.1	0.9				
	459	2	0.0	0.0	0.0	0.0	1	1.0	0.0	24.0	1	1.1	0.9				
	460	1	0.0	0.0	0.0	0.0	1	1.0	0.0	345.0	1	1.1	0.9				
	461	1	0.0	0.0	0.0	0.0	1	1.0	0.0	138.0	1	1.1	0.9				
	462	2	0.0	0.0	0.0	0.0	1	1.0	0.0	18.0	1	1.1	0.9				
	463	2	0.0	0.0	0.0	0.0	1	1.0	0.0	13.8	1	1.1	0.9				
	464	1	0.0	0.0	0.0	0.0	1	1.0	0.0	18.0	1	1.1	0.9				
	465	1	0.0	0.0	0.0	0.0	1	1.0	0.0	138.0	1	1.1	0.9				
	466	2	0.0	0.0	0.0	0.0	1	1.0	0.0	13.8	1	1.1	0.9				
	467	1	0.0	0.0	0.0	0.0	1	1.0	0.0	138.0	1	1.1	0.9				
	468	1	0.0	0.0	0.0	0.0	1	1.0	0.0	345.0	1	1.1	0.9				
	469	1	0.0	0.0	0.0	0.0	1	1.0	0.0	138.0	1	1.1	0.9				
	470	2	0.0	0.0	0.0	0.0	1	1.0	0.0	13.8	1	1.1	0.9				
	471	2	0.0	0.0	0.0	0.0	1	1.0	0.0	22.0	1	1.1	0.9				
	472	2	0.0	0.0	0.0	0.0	1	1.0	0.0	138.0	1	1.1	0.9				
	473	1	0.0	0.0	0.0	0.0	1	1.0	0.0	138.0	1	1.1	0.9				
	474	1	0.0	0.0	0.0	0.0	1	1.0	0.0	138.0	1	1.1	0.9				
	475	2	0.0	0.0	0.0	0.0	1	1.0	0.0	13.8	1	1.1	0.9				
	476	2	0.0	0.0	0.0	0.0	1	1.0	0.0	13.8	1	1.1	0.9				
	477	1	0.0	0.0	0.0	0.0	1	1.0	0.0	138.0	1	1.1	0.9				
	478	2	0.0	0.0	0.0	0.0	1	1.0	0.0	138.0	1	1.1	0.9				
	479	1	0.0	0.0	0.0	0.0	1	1.0	0.0	345.0	1	1.1	0.9				
	480	1	0.0	0.0	0.0	0.0	1	1.0	0.0	138.0	1	1.1	0.9				
	481	1	0.0	0.0	0.0	0.0	1	1.0	0.0	13.8	1	1.1	0.9				
	482	1	0.0	0.0	0.0	0.0	1	1.0	0.0	20.0	1	1.1	0.9				
	483	2	0.0	0.0	0.0	0.0	1	1.0	0.0	13.8	1	1.1	0.9				
	484	2	0.0	0.0	0.0	0.0	1	1.0	0.0	13.8	1	1.1	0.9				