%%%%%%%%%%%%%%%%%%%%%%%%%%%%%%%%%%%%%%%%%%%%%%%%%%%%%%%%%%%%%%%%%%%%%%%%%%%
%%%%                                                                  %%%%%
%%%%    This is a modified SCOTS-feasible instance adapted from the   %%%%%
%%%%                                :                                 %%%%%
%%%%    IEEE PES Power Grid Library - Optimal Power Flow - v21.07     %%%%%
%%%%          (https://github.com/power-grid-lib/pglib-opf)           %%%%%
%%%%               Benchmark Group - Typical Operations               %%%%%
%%%%                         29 - July - 2021                         %%%%%
%%%%                                                                  %%%%%
%%%%%%%%%%%%%%%%%%%%%%%%%%%%%%%%%%%%%%%%%%%%%%%%%%%%%%%%%%%%%%%%%%%%%%%%%%%
%
%   Power flow data for IEEE 300 bus test case.
%   This data was converted from IEEE Common Data Format
%   (ieee300cdf.txt) on 20-Sep-2004 by cdf2matp, rev. 1.11
%
%   Converted from IEEE CDF file from:
%       http://www.ee.washington.edu/research/pstca/
%
%   Copyright (c) 1999 by Richard D. Christie, University of Washington
%   Electrical Engineering Licensed under the Creative Commons Attribution 4.0
%   International license, http://creativecommons.org/licenses/by/4.0/
%
%   CDF Header:
%   13/05/91 CYME INTERNATIONAL    100.0 1991 S IEEE 300-BUS TEST SYSTEM
%
%% MATPOWER Case Format : Version 2
function mpc = pglib_opf_case300_ieee
mpc.version = '2';

%%-----  Power Flow Data  -----%%
%% system MVA base
mpc.baseMVA = 100.0;
%% bus data
%    bus_i    type    Pd    Qd    Gs    Bs    area    Vm    Va    baseKV    zone    Vmax    Vmin
mpc.bus = [
	1	1	90.0	49.0	0.0	0.0	1	1.0	0.0	115.0	1	1.06	0.94				
	2	1	56.0	15.0	0.0	0.0	1	1.0	0.0	115.0	1	1.06	0.94				
	3	1	20.0	0.0	0.0	0.0	1	1.0	0.0	230.0	1	1.06	0.94				
	4	1	0.0	0.0	0.0	0.0	1	1.0	0.0	345.0	1	1.06	0.94				
	5	1	353.0	130.0	0.0	0.0	1	1.0	0.0	115.0	1	1.06	0.94				
	6	1	120.0	41.0	0.0	0.0	1	1.0	0.0	115.0	1	1.06	0.94				
	7	1	0.0	0.0	0.0	0.0	1	1.0	0.0	230.0	1	1.06	0.94				
	8	2	63.0	14.0	0.0	0.0	1	1.0	0.0	115.0	1	1.06	0.94				
	9	1	96.0	43.0	0.0	0.0	1	1.0	0.0	115.0	1	1.06	0.94				
	10	2	153.0	33.0	0.0	0.0	1	1.0	0.0	230.0	1	1.06	0.94				
	11	1	83.0	21.0	0.0	0.0	1	1.0	0.0	115.0	1	1.06	0.94				
	12	1	0.0	0.0	0.0	0.0	1	1.0	0.0	230.0	1	1.06	0.94				
	13	1	58.0	10.0	0.0	0.0	1	1.0	0.0	115.0	1	1.06	0.94				
	14	1	160.0	60.0	0.0	0.0	1	1.0	0.0	115.0	1	1.06	0.94				
	15	1	126.7	23.0	0.0	0.0	1	1.0	0.0	115.0	1	1.06	0.94				
	16	1	0.0	0.0	0.0	0.0	1	1.0	0.0	345.0	1	1.06	0.94				
	17	1	561.0	220.0	0.0	0.0	1	1.0	0.0	115.0	1	1.06	0.94				
	19	1	0.0	0.0	0.0	0.0	1	1.0	0.0	230.0	1	1.06	0.94				
	20	2	605.0	120.0	0.0	0.0	1	1.0	0.0	115.0	1	1.06	0.94				
	21	1	77.0	1.0	0.0	0.0	1	1.0	0.0	230.0	1	1.06	0.94				
	22	1	81.0	23.0	0.0	0.0	1	1.0	0.0	115.0	1	1.06	0.94				
	23	1	21.0	7.0	0.0	0.0	1	1.0	0.0	115.0	1	1.06	0.94				
	24	1	0.0	0.0	0.0	0.0	1	1.0	0.0	230.0	1	1.06	0.94				
	25	1	45.0	12.0	0.0	0.0	1	1.0	0.0	115.0	1	1.06	0.94				
	26	1	28.0	9.0	0.0	0.0	1	1.0	0.0	115.0	1	1.06	0.94				
	27	1	69.0	13.0	0.0	0.0	1	1.0	0.0	115.0	1	1.06	0.94				
	33	1	55.0	6.0	0.0	0.0	1	1.0	0.0	115.0	1	1.06	0.94				
	34	1	0.0	0.0	0.0	0.0	1	1.0	0.0	345.0	1	1.06	0.94				
	35	1	0.0	0.0	0.0	0.0	1	1.0	0.0	115.0	1	1.06	0.94				
	36	1	0.0	0.0	0.0	0.0	1	1.0	0.0	230.0	1	1.06	0.94				
	37	1	85.0	32.0	0.0	0.0	1	1.0	0.0	115.0	1	1.06	0.94				
	38	1	155.0	18.0	0.0	0.0	1	1.0	0.0	115.0	1	1.06	0.94				
	39	1	0.0	0.0	0.0	0.0	1	1.0	0.0	345.0	1	1.06	0.94				
	40	1	46.0	-21.0	0.0	0.0	1	1.0	0.0	115.0	1	1.06	0.94				
	41	1	86.0	0.0	0.0	0.0	1	1.0	0.0	115.0	1	1.06	0.94				
	42	1	0.0	0.0	0.0	0.0	1	1.0	0.0	345.0	1	1.06	0.94				
	43	1	39.0	9.0	0.0	0.0	1	1.0	0.0	115.0	1	1.06	0.94				
	44	1	195.0	29.0	0.0	0.0	1	1.0	0.0	115.0	1	1.06	0.94				
	45	1	0.0	0.0	0.0	0.0	1	1.0	0.0	230.0	1	1.06	0.94				
	46	1	0.0	0.0	0.0	0.0	1	1.0	0.0	345.0	1	1.06	0.94				
	47	1	58.0	11.8	0.0	0.0	1	1.0	0.0	115.0	1	1.06	0.94				
	48	1	41.0	19.0	0.0	0.0	1	1.0	0.0	115.0	1	1.06	0.94				
	49	1	92.0	26.0	0.0	0.0	1	1.0	0.0	115.0	1	1.06	0.94				
	51	1	-5.0	5.0	0.0	0.0	1	1.0	0.0	115.0	1	1.06	0.94				
	52	1	61.0	28.0	0.0	0.0	1	1.0	0.0	115.0	1	1.06	0.94				
	53	1	69.0	3.0	0.0	0.0	1	1.0	0.0	115.0	1	1.06	0.94				
	54	1	10.0	1.0	0.0	0.0	1	1.0	0.0	115.0	1	1.06	0.94				
	55	1	22.0	10.0	0.0	0.0	1	1.0	0.0	115.0	1	1.06	0.94				
	57	1	98.0	20.0	0.0	0.0	1	1.0	0.0	115.0	1	1.06	0.94				
	58	1	14.0	1.0	0.0	0.0	1	1.0	0.0	115.0	1	1.06	0.94				
	59	1	218.0	106.0	0.0	0.0	1	1.0	0.0	115.0	1	1.06	0.94				
	60	1	0.0	0.0	0.0	0.0	1	1.0	0.0	230.0	1	1.06	0.94				
	61	1	227.0	110.0	0.0	0.0	1	1.0	0.0	115.0	1	1.06	0.94				
	62	1	0.0	0.0	0.0	0.0	1	1.0	0.0	230.0	1	1.06	0.94				
	63	2	70.0	30.0	0.0	0.0	1	1.0	0.0	115.0	1	1.06	0.94				
	64	1	0.0	0.0	0.0	0.0	1	1.0	0.0	230.0	1	1.06	0.94				
	69	1	0.0	0.0	0.0	0.0	1	1.0	0.0	115.0	1	1.06	0.94				
	70	1	56.0	20.0	0.0	0.0	1	1.0	0.0	115.0	1	1.06	0.94				
	71	1	116.0	38.0	0.0	0.0	1	1.0	0.0	115.0	1	1.06	0.94				
	72	1	57.0	19.0	0.0	0.0	1	1.0	0.0	115.0	1	1.06	0.94				
	73	1	224.0	71.0	0.0	0.0	1	1.0	0.0	115.0	1	1.06	0.94				
	74	1	0.0	0.0	0.0	0.0	1	1.0	0.0	230.0	1	1.06	0.94				
	76	2	208.0	107.0	0.0	0.0	1	1.0	0.0	115.0	1	1.06	0.94				
	77	1	74.0	28.0	0.0	0.0	1	1.0	0.0	115.0	1	1.06	0.94				
	78	1	0.0	0.0	0.0	0.0	1	1.0	0.0	115.0	1	1.06	0.94				
	79	1	48.0	14.0	0.0	0.0	1	1.0	0.0	115.0	1	1.06	0.94				
	80	1	28.0	7.0	0.0	0.0	1	1.0	0.0	115.0	1	1.06	0.94				
	81	1	0.0	0.0	0.0	0.0	1	1.0	0.0	345.0	1	1.06	0.94				
	84	2	37.0	13.0	0.0	0.0	1	1.0	0.0	115.0	1	1.06	0.94				
	85	1	0.0	0.0	0.0	0.0	1	1.0	0.0	230.0	1	1.06	0.94				
	86	1	0.0	0.0	0.0	0.0	1	1.0	0.0	230.0	1	1.06	0.94				
	87	1	0.0	0.0	0.0	0.0	1	1.0	0.0	230.0	1	1.06	0.94				
	88	1	0.0	0.0	0.0	0.0	1	1.0	0.0	230.0	1	1.06	0.94				
	89	1	44.2	0.0	0.0	0.0	1	1.0	0.0	115.0	1	1.06	0.94				
	90	1	66.0	0.0	0.0	0.0	1	1.0	0.0	115.0	1	1.06	0.94				
	91	2	17.4	0.0	0.0	0.0	1	1.0	0.0	115.0	1	1.06	0.94				
	92	2	15.8	0.0	0.0	0.0	1	1.0	0.0	115.0	1	1.06	0.94				
	94	1	60.3	0.0	0.0	0.0	1	1.0	0.0	115.0	1	1.06	0.94				
	97	1	39.9	0.0	0.0	0.0	1	1.0	0.0	115.0	1	1.06	0.94				
	98	2	66.7	0.0	0.0	0.0	1	1.0	0.0	115.0	1	1.06	0.94				
	99	1	83.5	0.0	0.0	0.0	1	1.0	0.0	115.0	1	1.06	0.94				
	100	1	0.0	0.0	0.0	0.0	1	1.0	0.0	115.0	1	1.06	0.94				
	102	1	77.8	0.0	0.0	0.0	1	1.0	0.0	115.0	1	1.06	0.94				
	103	1	32.0	0.0	0.0	0.0	1	1.0	0.0	115.0	1	1.06	0.94				
	104	1	8.6	0.0	0.0	0.0	1	1.0	0.0	115.0	1	1.06	0.94				
	105	1	49.6	0.0	0.0	0.0	1	1.0	0.0	115.0	1	1.06	0.94				
	107	1	4.6	0.0	0.0	0.0	1	1.0	0.0	115.0	1	1.06	0.94				
	108	2	112.1	0.0	0.0	0.0	1	1.0	0.0	115.0	1	1.06	0.94				
	109	1	30.7	0.0	0.0	0.0	1	1.0	0.0	115.0	1	1.06	0.94				
	110	1	63.0	0.0	0.0	0.0	1	1.0	0.0	115.0	1	1.06	0.94				
	112	1	19.6	0.0	0.0	0.0	1	1.0	0.0	115.0	1	1.06	0.94				
	113	1	26.2	0.0	0.0	0.0	1	1.0	0.0	115.0	1	1.06	0.94				
	114	1	18.2	0.0	0.0	0.0	1	1.0	0.0	115.0	1	1.06	0.94				
	115	1	0.0	0.0	0.0	0.0	1	1.0	0.0	115.0	2	1.06	0.94				
	116	1	0.0	0.0	0.0	0.0	1	1.0	0.0	115.0	2	1.06	0.94				
	117	1	0.0	0.0	0.0	325.0	1	1.0	0.0	115.0	2	1.06	0.94				
	118	1	14.1	650.0	0.0	0.0	1	1.0	0.0	115.0	2	1.06	0.94				
	119	2	0.0	0.0	0.0	0.0	1	1.0	0.0	115.0	2	1.06	0.94				
	120	1	777.0	215.0	0.0	55.0	1	1.0	0.0	115.0	2	1.06	0.94				
	121	1	535.0	55.0	0.0	0.0	1	1.0	0.0	115.0	2	1.06	0.94				
	122	1	229.1	11.8	0.0	0.0	1	1.0	0.0	115.0	2	1.06	0.94				
	123	1	78.0	1.4	0.0	0.0	1	1.0	0.0	115.0	2	1.06	0.94				
	124	2	276.4	59.3	0.0	0.0	1	1.0	0.0	115.0	2	1.06	0.94				
	125	2	514.8	82.7	0.0	0.0	1	1.0	0.0	115.0	2	1.06	0.94				
	126	1	57.9	5.1	0.0	0.0	1	1.0	0.0	115.0	2	1.06	0.94				
	127	1	380.8	37.0	0.0	0.0	1	1.0	0.0	230.0	2	1.06	0.94				
	128	1	0.0	0.0	0.0	0.0	1	1.0	0.0	230.0	2	1.06	0.94				
	129	1	0.0	0.0	0.0	0.0	1	1.0	0.0	230.0	2	1.06	0.94				
	130	1	0.0	0.0	0.0	0.0	1	1.0	0.0	230.0	2	1.06	0.94				
	131	1	0.0	0.0	0.0	0.0	1	1.0	0.0	230.0	2	1.06	0.94				
	132	1	0.0	0.0	0.0	0.0	1	1.0	0.0	230.0	2	1.06	0.94				
	133	1	0.0	0.0	0.0	0.0	1	1.0	0.0	230.0	2	1.06	0.94				
	134	1	0.0	0.0	0.0	0.0	1	1.0	0.0	230.0	2	1.06	0.94				
	135	1	169.2	41.6	0.0	0.0	1	1.0	0.0	230.0	2	1.06	0.94				
	136	1	55.2	18.2	0.0	0.0	1	1.0	0.0	230.0	2	1.06	0.94				
	137	1	273.6	99.8	0.0	0.0	1	1.0	0.0	230.0	2	1.06	0.94				
	138	2	1019.2	135.2	0.0	0.0	1	1.0	0.0	230.0	2	1.06	0.94				
	139	1	595.0	83.3	0.0	0.0	1	1.0	0.0	115.0	2	1.06	0.94				
	140	1	387.7	114.7	0.0	0.0	1	1.0	0.0	230.0	2	1.06	0.94				
	141	2	145.0	58.0	0.0	0.0	1	1.0	0.0	230.0	2	1.06	0.94				
	142	1	56.5	24.5	0.0	0.0	1	1.0	0.0	230.0	2	1.06	0.94				
	143	2	89.5	35.5	0.0	0.0	1	1.0	0.0	230.0	2	1.06	0.94				
	144	1	0.0	0.0	0.0	0.0	1	1.0	0.0	230.0	2	1.06	0.94				
	145	1	24.0	14.0	0.0	0.0	1	1.0	0.0	230.0	2	1.06	0.94				
	146	2	0.0	0.0	0.0	0.0	1	1.0	0.0	230.0	2	1.06	0.94				
	147	2	0.0	0.0	0.0	0.0	1	1.0	0.0	230.0	2	1.06	0.94				
	148	1	63.0	25.0	0.0	0.0	1	1.0	0.0	230.0	2	1.06	0.94				
	149	2	0.0	0.0	0.0	0.0	1	1.0	0.0	230.0	2	1.06	0.94				
	150	1	0.0	0.0	0.0	0.0	1	1.0	0.0	230.0	2	1.06	0.94				
	151	1	0.0	0.0	0.0	0.0	1	1.0	0.0	230.0	2	1.06	0.94				
	152	2	17.0	9.0	0.0	0.0	1	1.0	0.0	230.0	2	1.06	0.94				
	153	2	0.0	0.0	0.0	0.0	1	1.0	0.0	230.0	2	1.06	0.94				
	154	1	70.0	5.0	0.0	34.5	1	1.0	0.0	115.0	2	1.06	0.94				
	155	1	200.0	50.0	0.0	0.0	1	1.0	0.0	230.0	2	1.06	0.94				
	156	2	75.0	50.0	0.0	0.0	1	1.0	0.0	115.0	2	1.06	0.94				
	157	1	123.5	-24.3	0.0	0.0	1	1.0	0.0	230.0	2	1.06	0.94				
	158	1	0.0	0.0	0.0	0.0	1	1.0	0.0	230.0	2	1.06	0.94				
	159	1	33.0	16.5	0.0	0.0	1	1.0	0.0	230.0	2	1.06	0.94				
	160	1	0.0	0.0	0.0	0.0	1	1.0	0.0	230.0	2	1.06	0.94				
	161	1	35.0	15.0	0.0	0.0	1	1.0	0.0	230.0	2	1.06	0.94				
	162	1	85.0	24.0	0.0	0.0	1	1.0	0.0	230.0	2	1.06	0.94				
	163	1	0.0	0.4	0.0	0.0	1	1.0	0.0	230.0	2	1.06	0.94				
	164	1	0.0	0.0	0.0	-212.0	1	1.0	0.0	230.0	2	1.06	0.94				
	165	1	0.0	0.0	0.0	0.0	1	1.0	0.0	230.0	2	1.06	0.94				
	166	1	0.0	0.0	0.0	-103.0	1	1.0	0.0	230.0	2	1.06	0.94				
	167	1	299.9	95.7	0.0	0.0	1	1.0	0.0	230.0	2	1.06	0.94				
	168	1	0.0	0.0	0.0	0.0	1	1.0	0.0	230.0	2	1.06	0.94				
	169	1	0.0	0.0	0.0	0.0	1	1.0	0.0	230.0	2	1.06	0.94				
	170	2	481.8	205.0	0.0	0.0	1	1.0	0.0	115.0	2	1.06	0.94				
	171	2	763.6	291.1	0.0	0.0	1	1.0	0.0	115.0	2	1.06	0.94				
	172	1	26.5	0.0	0.0	0.0	1	1.0	0.0	115.0	2	1.06	0.94				
	173	1	163.5	43.0	0.0	53.0	1	1.0	0.0	115.0	2	1.06	0.94				
	174	1	0.0	0.0	0.0	0.0	1	1.0	0.0	115.0	2	1.06	0.94				
	175	1	176.0	83.0	0.0	0.0	1	1.0	0.0	115.0	2	1.06	0.94				
	176	2	5.0	4.0	0.0	0.0	1	1.0	0.0	115.0	2	1.06	0.94				
	177	2	28.0	12.0	0.0	0.0	1	1.0	0.0	115.0	2	1.06	0.94				
	178	1	427.4	173.6	0.0	0.0	1	1.0	0.0	115.0	2	1.06	0.94				
	179	1	74.0	29.0	0.0	45.0	1	1.0	0.0	115.0	2	1.06	0.94				
	180	1	69.5	49.3	0.0	0.0	1	1.0	0.0	115.0	2	1.06	0.94				
	181	1	73.4	0.0	0.0	0.0	1	1.0	0.0	230.0	2	1.06	0.94				
	182	1	240.7	89.0	0.0	0.0	1	1.0	0.0	230.0	2	1.06	0.94				
	183	1	40.0	4.0	0.0	0.0	1	1.0	0.0	115.0	2	1.06	0.94				
	184	1	136.8	16.6	0.0	0.0	1	1.0	0.0	230.0	2	1.06	0.94				
	185	2	0.0	0.0	0.0	0.0	1	1.0	0.0	230.0	2	1.06	0.94				
	186	2	59.8	24.3	0.0	0.0	1	1.0	0.0	230.0	2	1.06	0.94				
	187	2	59.8	24.3	0.0	0.0	1	1.0	0.0	230.0	2	1.06	0.94				
	188	1	182.6	43.6	0.0	0.0	1	1.0	0.0	230.0	2	1.06	0.94				
	189	1	7.0	2.0	0.0	0.0	1	1.0	0.0	66.0	3	1.06	0.94				
	190	2	0.0	0.0	0.0	-150.0	1	1.0	0.0	345.0	3	1.06	0.94				
	191	2	489.0	53.0	0.0	0.0	1	1.0	0.0	230.0	3	1.06	0.94				
	192	1	800.0	72.0	0.0	0.0	1	1.0	0.0	230.0	3	1.06	0.94				
	193	1	0.0	0.0	0.0	0.0	1	1.0	0.0	66.0	3	1.06	0.94				
	194	1	0.0	0.0	0.0	0.0	1	1.0	0.0	345.0	3	1.06	0.94				
	195	1	0.0	0.0	0.0	0.0	1	1.0	0.0	345.0	3	1.06	0.94				
	196	1	10.0	3.0	0.0	0.0	1	1.0	0.0	115.0	3	1.06	0.94				
	197	1	43.0	14.0	0.0	0.0	1	1.0	0.0	115.0	3	1.06	0.94				
	198	2	64.0	21.0	0.0	0.0	1	1.0	0.0	115.0	3	1.06	0.94				
	199	1	35.0	12.0	0.0	0.0	1	1.0	0.0	115.0	3	1.06	0.94				
	200	1	27.0	12.0	0.0	0.0	1	1.0	0.0	115.0	3	1.06	0.94				
	201	1	41.0	14.0	0.0	0.0	1	1.0	0.0	66.0	1	1.06	0.94				
	202	1	38.0	13.0	0.0	0.0	1	1.0	0.0	66.0	3	1.06	0.94				
	203	1	42.0	14.0	0.0	0.0	1	1.0	0.0	115.0	3	1.06	0.94				
	204	1	72.0	24.0	0.0	0.0	1	1.0	0.0	66.0	3	1.06	0.94				
	205	1	0.0	-5.0	0.0	0.0	1	1.0	0.0	66.0	3	1.06	0.94				
	206	1	12.0	2.0	0.0	0.0	1	1.0	0.0	66.0	3	1.06	0.94				
	207	1	-21.0	-14.2	0.0	0.0	1	1.0	0.0	66.0	1	1.06	0.94				
	208	1	7.0	2.0	0.0	0.0	1	1.0	0.0	66.0	3	1.06	0.94				
	209	1	38.0	13.0	0.0	0.0	1	1.0	0.0	66.0	3	1.06	0.94				
	210	1	0.0	0.0	0.0	0.0	1	1.0	0.0	115.0	3	1.06	0.94				
	211	1	96.0	7.0	0.0	0.0	1	1.0	0.0	115.0	3	1.06	0.94				
	212	1	0.0	0.0	0.0	0.0	1	1.0	0.0	138.0	3	1.06	0.94				
	213	2	0.0	0.0	0.0	0.0	1	1.0	0.0	16.5	3	1.06	0.94				
	214	1	22.0	16.0	0.0	0.0	1	1.0	0.0	138.0	3	1.06	0.94				
	215	1	47.0	26.0	0.0	0.0	1	1.0	0.0	138.0	3	1.06	0.94				
	216	1	176.0	105.0	0.0	0.0	1	1.0	0.0	138.0	3	1.06	0.94				
	217	1	100.0	75.0	0.0	0.0	1	1.0	0.0	138.0	3	1.06	0.94				
	218	1	131.0	96.0	0.0	0.0	1	1.0	0.0	138.0	3	1.06	0.94				
	219	1	0.0	0.0	0.0	0.0	1	1.0	0.0	345.0	3	1.06	0.94				
	220	2	285.0	100.0	0.0	0.0	1	1.0	0.0	138.0	3	1.06	0.94				
	221	2	171.0	70.0	0.0	0.0	1	1.0	0.0	138.0	3	1.06	0.94				
	222	2	328.0	188.0	0.0	0.0	1	1.0	0.0	20.0	3	1.06	0.94				
	223	1	428.0	232.0	0.0	0.0	1	1.0	0.0	138.0	3	1.06	0.94				
	224	1	173.0	99.0	0.0	0.0	1	1.0	0.0	230.0	3	1.06	0.94				
	225	1	410.0	40.0	0.0	0.0	1	1.0	0.0	230.0	3	1.06	0.94				
	226	1	0.0	0.0	0.0	0.0	1	1.0	0.0	230.0	3	1.06	0.94				
	227	2	538.0	369.0	0.0	0.0	1	1.0	0.0	27.0	3	1.06	0.94				
	228	1	223.0	148.0	0.0	0.0	1	1.0	0.0	138.0	3	1.06	0.94				
	229	1	96.0	46.0	0.0	0.0	1	1.0	0.0	138.0	3	1.06	0.94				
	230	2	0.0	0.0	0.0	0.0	1	1.0	0.0	20.0	3	1.06	0.94				
	231	1	159.0	107.0	0.0	-300.0	1	1.0	0.0	345.0	3	1.06	0.94				
	232	1	448.0	143.0	0.0	0.0	1	1.0	0.0	138.0	3	1.06	0.94				
	233	2	404.0	212.0	0.0	0.0	1	1.0	0.0	66.0	3	1.06	0.94				
	234	1	572.0	244.0	0.0	0.0	1	1.0	0.0	138.0	3	1.06	0.94				
	235	1	269.0	157.0	0.0	0.0	1	1.0	0.0	138.0	3	1.06	0.94				
	236	2	0.0	0.0	0.0	0.0	1	1.0	0.0	20.0	3	1.06	0.94				
	237	1	0.0	0.0	0.0	0.0	1	1.0	0.0	345.0	3	1.06	0.94				
	238	2	255.0	149.0	0.0	-150.0	1	1.0	0.0	138.0	3	1.06	0.94				
	239	2	0.0	0.0	0.0	0.0	1	1.0	0.0	138.0	3	1.06	0.94				
	240	1	0.0	0.0	0.0	-140.0	1	1.0	0.0	230.0	3	1.06	0.94				
	241	2	0.0	0.0	0.0	0.0	1	1.0	0.0	20.0	3	1.06	0.94				
	242	2	0.0	0.0	0.0	0.0	1	1.0	0.0	138.0	3	1.06	0.94				
	243	2	8.0	3.0	0.0	0.0	1	1.0	0.0	66.0	3	1.06	0.94				
	244	1	0.0	0.0	0.0	0.0	1	1.0	0.0	66.0	3	1.06	0.94				
	245	1	61.0	30.0	0.0	0.0	1	1.0	0.0	66.0	3	1.06	0.94				
	246	1	77.0	33.0	0.0	0.0	1	1.0	0.0	66.0	3	1.06	0.94				
	247	1	61.0	30.0	0.0	0.0	1	1.0	0.0	66.0	3	1.06	0.94				
	248	1	29.0	14.0	0.0	45.6	1	1.0	0.0	66.0	3	1.06	0.94				
	249	1	29.0	14.0	0.0	0.0	1	1.0	0.0	66.0	3	1.06	0.94				
	250	1	-23.0	-17.0	0.0	0.0	1	1.0	0.0	66.0	3	1.06	0.94				
	281	1	-33.1	-29.4	0.0	0.0	1	1.0	0.0	230.0	3	1.06	0.94				
	319	1	115.8	-24.0	0.0	0.0	1	1.0	0.0	230.0	1	1.06	0.94				
	320	1	2.4	-12.6	0.0	0.0	1	1.0	0.0	115.0	1	1.06	0.94				
	322	1	2.4	-3.9	0.0	0.0	1	1.0	0.0	115.0	1	1.06	0.94				
	323	1	-14.9	26.5	0.0	0.0	1	1.0	0.0	230.0	1	1.06	0.94				
	324	1	24.7	-1.2	0.0	0.0	1	1.0	0.0	115.0	1	1.06	0.94				
	526	1	145.3	-34.9	0.0	0.0	1	1.0	0.0	115.0	1	1.06	0.94				
	528	1	28.1	-20.5	0.0	0.0	1	1.0	0.0	115.0	1	1.06	0.94				
	531	1	14.0	2.5	0.0	0.0	1	1.0	0.0	115.0	1	1.06	0.94				
	552	1	-11.1	-1.4	0.0	0.0	1	1.0	0.0	115.0	1	1.06	0.94				
	562	1	50.5	17.4	0.0	0.0	1	1.0	0.0	230.0	1	1.06	0.94				
	609	1	29.6	0.6	0.0	0.0	1	1.0	0.0	115.0	1	1.06	0.94				
	664	1	-113.7	76.7	0.0	0.0	1	1.0	0.0	345.0	3	1.06	0.94				
	1190	1	100.31	29.17	0.0	0.0	1	1.0	0.0	86.0	2	1.06	0.94				
	1200	1	-100.0	34.17	0.0	0.0	1	1.0	0.0	86.0	2	1.06	0.94				
	1201	1	0.0	0.0	0.0	0.0	1	1.0	0.0	115.0	2	1.06	0.94				
	2040	1	0.0	0.0	0.0	0.0	1	1.0	0.0	115.0	3	1.06	0.94				
	7001	2	0.0	0.0	0.0	0.0	1	1.0	0.0	13.8	1	1.06	0.94				
	7002	2	0.0	0.0	0.0	0.0	1	1.0	0.0	13.8	1	1.06	0.94				
	7003	2	0.0	0.0	0.0	0.0	1	1.0	0.0	13.8	1	1.06	0.94				
	7011	2	0.0	0.0	0.0	0.0	1	1.0	0.0	13.8	1	1.06	0.94				
	7012	2	0.0	0.0	0.0	0.0	1	1.0	0.0	13.8	1	1.06	0.94				
	7017	2	0.0	0.0	0.0	0.0	1	1.0	0.0	13.8	1	1.06	0.94				
	7023	2	0.0	0.0	0.0	0.0	1	1.0	0.0	13.8	1	1.06	0.94				
	7024	2	0.0	0.0	0.0	0.0	1	1.0	0.0	13.8	1	1.06	0.94				
	7039	2	0.0	0.0	0.0	0.0	1	1.0	0.0	20.0	1	1.06	0.94				
	7044	2	0.0	0.0	0.0	0.0	1	1.0	0.0	13.8	1	1.06	0.94				
	7049	3	0.0	0.0	0.0	0.0	1	1.0	0.0	13.8	1	1.06	0.94				
	7055	2	0.0	0.0	0.0	0.0	1	1.0	0.0	13.8	1	1.06	0.94				
	7057	2	0.0	0.0	0.0	0.0	1	1.0	0.0	13.8	1	1.06	0.94				
	7061	2	0.0	0.0	0.0	0.0	1	1.0	0.0	13.8	1	1.06	0.94				
	7062	2	0.0	0.0	0.0	0.0	1	1.0	0.0	13.8	1	1.06	0.94				
	7071	2	0.0	0.0	0.0	0.0	1	1.0	0.0	13.8	1	1.06	0.94				
	7130	2	0.0	0.0	0.0	0.0	1	1.0	0.0	13.8	2	1.06	0.94				
	7139	2	0.0	0.0	0.0	0.0	1	1.0	0.0	13.8	2	1.06	0.94				
	7166	2	0.0	0.0	0.0	0.0	1	1.0	0.0	13.8	2	1.06	0.94				
	9001	1	0.0	0.0	0.0	0.0	1	1.0	0.0	115.0	9	1.06	0.94				
	9002	2	4.2	0.0	0.0	0.0	1	1.0	0.0	6.6	9	1.06	0.94				
	9003	1	2.71	0.94	0.14	2.4	1	1.0	0.0	6.6	9	1.06	0.94				
	9004	1	0.86	0.28	0.0	0.0	1	1.0	0.0	6.6	9	1.06	0.94				
	9005	1	0.0	0.0	0.0	0.0	1	1.0	0.0	115.0	9	1.06	0.94				
	9006	1	0.0	0.0	0.0	0.0	1	1.0	0.0	6.6	9	1.06	0.94				
	9007	1	0.0	0.0	0.0	0.0	1	1.0	0.0	6.6	9	1.06	0.94				
	9012	1	0.0	0.0	0.0	0.0	1	1.0	0.0	6.6	9	1.06	0.94				
	9021	1	4.75	1.56	0.0	0.0	1	1.0	0.0	6.6	9	1.06	0.94				
	9022	1	1.53	0.53	0.08	0.0	1	1.0	0.0	0.6	9	1.06	0.94				
	9023	1	0.0	0.0	0.0	0.0	1	1.0	0.0	6.6	9	1.06	0.94				
	9024	1	1.35	0.47	0.07	0.0	1	1.0	0.0	0.6	9	1.06	0.94				
	9025	1	0.45	0.16	0.02	0.0	1	1.0	0.0	0.6	9	1.06	0.94				
	9026	1	0.45	0.16	0.02	0.0	1	1.0	0.0	0.6	9	1.06	0.94				
	9031	1	1.84	0.64	0.1	0.0	1	1.0	0.0	0.6	9	1.06	0.94				
	9032	1	1.39	0.48	0.07	0.0	1	1.0	0.0	0.6	9	1.06	0.94				
	9033	1	1.89	0.65	0.1	0.0	1	1.0	0.0	0.6	9	1.06	0.94				
	9034	1	1.55	0.54	0.08	1.72	1	1.0	0.0	0.6	9	1.06	0.94				
	9035	1	1.66	0.58	0.09	0.0	1	1.0	0.0	0.6	9	1.06	0.94				
	9036	1	3.03	1.0	0.0	0.0	1	1.0	0.0	2.3	9	1.06	0.94				
	9037	1	1.86	0.64	0.1	0.0	1	1.0	0.0	0.6	9	1.06	0.94				
	9038	1	2.58	0.89	0.14	0.0	1	1.0	0.0	0.6	9	1.06	0.94				
	9041	1	1.01	0.35	0.05	0.0	1	1.0	0.0	0.6	9	1.06	0.94				
	9042	1	0.81	0.28	0.04	0.0	1	1.0	0.0	0.6	9	1.06	0.94				
	9043	1	1.6	0.52	0.0	0.0	1	1.0	0.0	2.3	9	1.06	0.94				
	9044	1	0.0	0.0	0.0	0.0	1	1.0	0.0	6.6	9	1.06	0.94				
	9051	2	35.81	0.0	0.0	0.0	1	1.0	0.0	13.8	9	1.06	0.94				
	9052	1	30.0	23.0	0.0	0.0	1	1.0	0.0	13.8	9	1.06	0.94				
	9053	2	26.48	0.0	0.0	0.0	1	1.0	0.0	13.8	9	1.06	0.94				
	9054	2	0.0	0.0	0.0	0.0	1	1.0	0.0	13.8	9	1.06	0.94				
	9055	2	0.0	0.0	0.0	0.0	1	1.0	0.0	13.8	9	1.06	0.94				
	9071	1	1.02	0.35	0.05	0.0	1	1.0	0.0	0.6	9	1.06	0.94				
	9072	1	1.02	0.35	0.05	0.0	1	1.0	0.0	0.6	9	1.06	0.94				
	9121	1	3.8	1.25	0.0	0.0	1	1.0	0.0	6.6	9	1.06	0.94				
	9533	1	1.19	0.41	0.1	0.0	1	1.0	0.0	2.3	9	1.06	0.94				
];

%%	 generator data
%    bus    Pg    Qg    Qmax    Qmin    Vg    mBase    status    Pmax    Pmin    Pc1    Pc2    Qc1min    Qc1max    Qc2min    Qc2max    ramp_agc    ramp_10    ramp_30    ramp_q    apf
mpc.gen = [
	8	0.0	0.0	10.0	-10.0	1.0	100.0	1	0.0	0.0															
	10	0.0	0.0	20.0	-20.0	1.0	100.0	1	0.0	0.0															
	20	0.0	0.0	20.0	-20.0	1.0	100.0	1	0.0	0.0															
	63	0.0	0.0	25.0	-25.0	1.0	100.0	1	0.0	0.0															
	76	0.0	23.5	35.0	12.0	1.0	100.0	1	0.0	0.0															
	84	724.0	0.0	240.0	-240.0	1.0	100.0	1	1448.0	0.0															
	91	92.5	41.0	93.0	-11.0	1.0	100.0	1	185.0	0.0															
	92	180.0	0.0	153.0	-153.0	1.0	100.0	1	360.0	0.0															
	98	46.5	8.5	47.0	-30.0	1.0	100.0	1	93.0	0.0															
	108	98.5	26.5	77.0	-24.0	1.0	100.0	1	197.0	0.0															
	119	1020.5	260.5	1021.0	-500.0	1.0	100.0	1	2041.0	0.0															
	124	160.5	30.0	120.0	-60.0	1.0	100.0	1	1445.715	0.0															
	125	0.0	87.5	200.0	-25.0	1.0	100.0	1	0.0	0.0															
	138	0.0	112.5	350.0	-125.0	1.0	100.0	1	0.0	0.0															
	141	148.5	12.5	75.0	-50.0	1.0	100.0	1	297.0	0.0															
	143	400.0	100.0	300.0	-100.0	1.0	100.0	1	800.0	0.0															
	146	45.5	10.0	35.0	-15.0	1.0	100.0	1	91.0	0.0															
	147	160.0	25.0	100.0	-50.0	1.0	100.0	1	320.0	0.0															
	149	138.5	12.5	50.0	-25.0	1.0	100.0	1	277.0	0.0															
	152	303.0	62.5	175.0	-50.0	1.0	100.0	1	606.0	0.0															
	153	121.0	20.0	90.0	-50.0	1.0	100.0	1	242.0	0.0															
	156	0.0	2.5	15.0	-10.0	1.0	100.0	1	0.0	0.0															
	170	165.0	25.0	90.0	-40.0	1.0	100.0	1	330.0	0.0															
	171	0.0	50.0	150.0	-50.0	1.0	100.0	1	0.0	0.0															
	176	139.0	22.5	90.0	-45.0	1.0	100.0	1	278.0	0.0															
	177	62.5	10.0	35.0	-15.0	1.0	100.0	1	125.0	0.0															
	185	125.0	15.0	80.0	-50.0	1.0	100.0	1	250.0	0.0															
	186	1232.5	150.0	400.0	-100.0	1.0	100.0	1	2465.0	0.0															
	187	812.0	150.0	400.0	-100.0	1.0	100.0	1	1624.0	0.0															
	190	257.5	0.0	258.0	-258.0	1.0	100.0	1	515.0	0.0															
	191	1070.0	0.0	1000.0	-1000.0	1.0	100.0	1	2140.0	0.0															
	198	215.0	0.0	215.0	-215.0	1.0	100.0	1	430.0	0.0															
	213	144.0	0.0	144.0	-144.0	1.0	100.0	1	288.0	0.0															
	220	230.0	0.0	60.0	-60.0	1.0	100.0	1	460.0	0.0															
	221	277.0	0.0	277.0	-277.0	1.0	100.0	1	554.0	0.0															
	222	261.5	0.0	262.0	-262.0	1.0	100.0	1	523.0	0.0															
	227	218.0	0.0	218.0	-218.0	1.0	100.0	1	436.0	0.0															
	230	229.0	0.0	229.0	-229.0	1.0	100.0	1	458.0	0.0															
	233	170.5	0.0	171.0	-171.0	1.0	100.0	1	341.0	0.0															
	236	440.5	0.0	300.0	-300.0	1.0	100.0	1	881.0	0.0															
	238	133.5	0.0	134.0	-134.0	1.0	100.0	1	267.0	0.0															
	239	310.5	0.0	311.0	-311.0	1.0	100.0	1	621.0	0.0															
	241	563.5	0.0	564.0	-564.0	1.0	100.0	1	1127.0	0.0															
	242	106.0	70.0	100.0	40.0	1.0	100.0	1	212.0	0.0															
	243	171.0	60.0	80.0	40.0	1.0	100.0	1	342.0	0.0															
	7001	284.0	0.0	210.0	-210.0	1.0	100.0	1	568.0	0.0															
	7002	335.0	0.0	280.0	-280.0	1.0	100.0	1	670.0	0.0															
	7003	700.5	0.0	420.0	-420.0	1.0	100.0	1	1401.0	0.0															
	7011	334.0	0.0	100.0	-100.0	1.0	100.0	1	668.0	0.0															
	7012	313.0	0.0	224.0	-224.0	1.0	100.0	1	626.0	0.0															
	7017	245.0	122.5	245.0	0.0	1.0	100.0	1	490.0	0.0															
	7023	110.0	55.0	110.0	0.0	1.0	100.0	1	220.0	0.0															
	7024	271.5	0.0	224.0	-224.0	1.0	100.0	1	543.0	0.0															
	7039	290.0	0.0	200.0	-200.0	1.0	100.0	1	580.0	0.0															
	7044	66.0	21.0	42.0	0.0	1.0	100.0	1	132.0	0.0															
	7049	359.0	5.0	10.0	0.0	1.0	100.0	1	718.0	0.0															
	7055	79.0	12.5	25.0	0.0	1.0	100.0	1	158.0	0.0															
	7057	167.0	0.0	90.0	-90.0	1.0	100.0	1	334.0	0.0															
	7061	878.5	0.0	150.0	-150.0	1.0	100.0	1	1757.0	0.0															
	7062	284.0	75.0	150.0	0.0	1.0	100.0	1	568.0	0.0															
	7071	101.5	43.5	87.0	0.0	1.0	100.0	1	203.0	0.0															
	7130	863.0	250.0	600.0	-100.0	1.0	100.0	1	1726.0	0.0															
	7139	1012.5	100.0	325.0	-125.0	1.0	100.0	1	2025.0	0.0															
	7166	312.0	50.0	300.0	-200.0	1.0	100.0	1	624.0	0.0															
	9002	0.0	0.0	2.0	-2.0	1.0	100.0	1	0.0	0.0															
	9051	0.0	0.0	17.35	-17.35	1.0	100.0	1	0.0	0.0															
	9053	0.0	0.015	12.83	-12.8	1.0	100.0	1	0.0	0.0															
	9054	42.0	0.0	38.0	-38.0	1.0	100.0	1	84.0	0.0															
	9055	18.5	0.0	6.0	-6.0	1.0	100.0	1	37.0	0.0															
];

%%	 branch data
%    f_bus    t_bus    r    x    b    rateA    rateB    rateC    ratio    angle    status    angmin    angmax
mpc.branch = [
	37	9001	6.0e-5	0.00046	0.0	9900.0	63230.0	63230.0	1.0082	0.0	1	-30.0	30.0								
	9001	9005	0.0008	0.00348	0.0	8215.0	8215.0	8215.0	0	0	1	-30.0	30.0								
	9001	9006	0.02439	0.43682	0.0	68.0	68.0	68.0	0.9668	0.0	1	-30.0	30.0								
	9001	9012	0.03624	0.64898	0.0	46.0	46.0	46.0	0.9796	0.0	1	-30.0	30.0								
	9005	9051	0.01578	0.37486	0.0	79.0	79.0	79.0	1.0435	0.0	1	-30.0	30.0								
	9005	9052	0.01578	0.37486	0.0	79.0	79.0	79.0	0.9391	0.0	1	-30.0	30.0								
	9005	9053	0.01602	0.38046	0.0	78.0	78.0	78.0	1.0435	0.0	1	-30.0	30.0								
	9005	9054	0.0	0.152	0.0	193.0	193.0	193.0	1.0435	0.0	1	-30.0	30.0								
	9005	9055	0.0	0.8	0.0	37.0	37.0	37.0	1.0435	0.0	1	-30.0	30.0								
	9006	9007	0.05558	0.24666	0.0	117.0	117.0	117.0	0	0	1	-30.0	30.0								
	9006	9003	0.11118	0.49332	0.0	59.0	59.0	59.0	0	0	1	-30.0	30.0								
	9006	9003	0.11118	0.49332	0.0	59.0	59.0	59.0	0	0	1	-30.0	30.0								
	9012	9002	0.07622	0.43286	0.0	67.0	67.0	67.0	0	0	1	-30.0	30.0								
	9012	9002	0.07622	0.43286	0.0	67.0	67.0	67.0	0	0	1	-30.0	30.0								
	9002	9021	0.0537	0.07026	0.0	332.0	332.0	332.0	0	0	1	-30.0	30.0								
	9021	9023	1.1068	0.95278	0.0	21.0	21.0	21.0	0	0	1	-30.0	30.0								
	9021	9022	0.44364	2.8152	0.0	11.0	11.0	11.0	1.0	0.0	1	-30.0	30.0								
	9002	9024	0.50748	3.2202	0.0	9.0	9.0	9.0	1.0	0.0	1	-30.0	30.0								
	9023	9025	0.66688	3.944	0.0	8.0	8.0	8.0	1.0	0.0	1	-30.0	30.0								
	9023	9026	0.6113	3.6152	0.0	8.0	8.0	8.0	1.0	0.0	1	-30.0	30.0								
	9007	9071	0.4412	2.9668	0.0	10.0	10.0	10.0	1.0	0.0	1	-30.0	30.0								
	9007	9072	0.30792	2.057	0.0	15.0	15.0	15.0	1.0	0.0	1	-30.0	30.0								
	9007	9003	0.0558	0.24666	0.0	116.0	116.0	116.0	0	0	1	-30.0	30.0								
	9003	9031	0.73633	4.6724	0.0	7.0	7.0	7.0	1.0	0.0	1	-30.0	30.0								
	9003	9032	0.76978	4.8846	0.0	6.0	6.0	6.0	1.0	0.0	1	-30.0	30.0								
	9003	9033	0.75732	4.8056	0.0	7.0	7.0	7.0	1.0	0.0	1	-30.0	30.0								
	9003	9044	0.07378	0.06352	0.0	302.0	302.0	302.0	0	0	1	-30.0	30.0								
	9044	9004	0.03832	0.02894	0.0	611.0	611.0	611.0	0	0	1	-30.0	30.0								
	9004	9041	0.36614	2.456	0.0	12.0	12.0	12.0	1.0	0.0	1	-30.0	30.0								
	9004	9042	1.0593	5.4536	0.0	6.0	6.0	6.0	1.0	0.0	1	-30.0	30.0								
	9004	9043	0.1567	1.6994	0.0	18.0	18.0	18.0	1.0	0.0	1	-30.0	30.0								
	9003	9034	0.13006	1.3912	0.0	21.0	21.0	21.0	1.0	0.0	1	-30.0	30.0								
	9003	9035	0.54484	3.4572	0.0	9.0	9.0	9.0	1.0	0.0	1	-30.0	30.0								
	9003	9036	0.15426	1.6729	0.0	18.0	18.0	18.0	1.0	0.0	1	-30.0	30.0								
	9003	9037	0.3849	2.5712	0.0	12.0	12.0	12.0	1.0	0.0	1	-30.0	30.0								
	9003	9038	0.4412	2.9668	0.0	10.0	10.0	10.0	1.0	0.0	1	-30.0	30.0								
	9012	9121	0.23552	0.99036	0.0	29.0	29.0	29.0	0	0	1	-30.0	30.0								
	9053	9533	0.0	0.75	0.0	40.0	40.0	40.0	0.9583	0.0	1	-30.0	30.0								
	1	5	0.001	0.006	0.0	4823.0	4823.0	4823.0	0	0	1	-30.0	30.0								
	2	6	0.001	0.009	0.0	3240.0	3240.0	3240.0	0	0	1	-30.0	30.0								
	2	8	0.006	0.027	0.054	1061.0	1061.0	1061.0	0	0	1	-30.0	30.0								
	3	7	0.0	0.003	0.0	9778.0	9778.0	9778.0	0	0	1	-30.0	30.0								
	3	19	0.008	0.069	0.139	423.0	423.0	423.0	0	0	1	-30.0	30.0								
	3	150	0.001	0.007	0.0	4149.0	4149.0	4149.0	0	0	1	-30.0	30.0								
	4	16	0.002	0.019	1.127	1536.0	1536.0	1536.0	0	0	1	-30.0	30.0								
	5	9	0.006	0.029	0.018	991.0	991.0	991.0	0	0	1	-30.0	30.0								
	7	12	0.001	0.009	0.07	3240.0	3240.0	3240.0	0	0	1	-30.0	30.0								
	7	131	0.001	0.007	0.014	4149.0	4149.0	4149.0	0	0	1	-30.0	30.0								
	8	11	0.013	0.0595	0.033	482.0	482.0	482.0	0	0	1	-30.0	30.0								
	8	14	0.013	0.042	0.081	668.0	668.0	668.0	0	0	1	-30.0	30.0								
	9	11	0.006	0.027	0.013	1061.0	1061.0	1061.0	0	0	1	-30.0	30.0								
	11	13	0.008	0.034	0.018	840.0	840.0	840.0	0	0	1	-30.0	30.0								
	12	21	0.002	0.015	0.118	1939.0	1939.0	1939.0	0	0	1	-30.0	30.0								
	13	20	0.006	0.034	0.016	850.0	850.0	850.0	0	0	1	-30.0	30.0								
	14	15	0.014	0.042	0.097	663.0	663.0	663.0	0	0	1	-30.0	30.0								
	15	37	0.065	0.248	0.121	115.0	115.0	115.0	0	0	1	-30.0	30.0								
	15	89	0.099	0.248	0.035	110.0	110.0	110.0	0	0	1	-30.0	30.0								
	15	90	0.096	0.363	0.048	79.0	79.0	79.0	0	0	1	-30.0	30.0								
	16	42	0.002	0.022	1.28	1328.0	1328.0	1328.0	0	0	1	-30.0	30.0								
	19	21	0.002	0.018	0.036	1620.0	1620.0	1620.0	0	0	1	-30.0	30.0								
	19	87	0.013	0.08	0.151	362.0	362.0	362.0	0	0	1	-30.0	30.0								
	20	22	0.016	0.033	0.015	800.0	800.0	800.0	0	0	1	-30.0	30.0								
	20	27	0.069	0.186	0.098	148.0	148.0	148.0	0	0	1	-30.0	30.0								
	21	24	0.004	0.034	0.28	857.0	857.0	857.0	0	0	1	-30.0	30.0								
	22	23	0.052	0.111	0.05	240.0	240.0	240.0	0	0	1	-30.0	30.0								
	23	25	0.019	0.039	0.018	677.0	677.0	677.0	0	0	1	-30.0	30.0								
	24	319	0.007	0.068	0.134	430.0	430.0	430.0	0	0	1	-30.0	30.0								
	25	26	0.036	0.071	0.034	369.0	369.0	369.0	0	0	1	-30.0	30.0								
	26	27	0.045	0.12	0.065	229.0	229.0	229.0	0	0	1	-30.0	30.0								
	26	320	0.043	0.13	0.014	215.0	215.0	215.0	0	0	1	-30.0	30.0								
	33	34	0.0	0.063	0.0	466.0	466.0	466.0	1.0	0.0	1	-30.0	30.0								
	33	38	0.0025	0.012	0.013	2393.0	2393.0	2393.0	0	0	1	-30.0	30.0								
	33	40	0.006	0.029	0.02	991.0	991.0	991.0	0	0	1	-30.0	30.0								
	33	41	0.007	0.043	0.026	674.0	674.0	674.0	0	0	1	-30.0	30.0								
	34	42	0.001	0.008	0.042	3639.0	3639.0	3639.0	0	0	1	-30.0	30.0								
	35	72	0.012	0.06	0.008	480.0	480.0	480.0	0	0	1	-30.0	30.0								
	35	76	0.006	0.014	0.002	1926.0	1926.0	1926.0	0	0	1	-30.0	30.0								
	35	77	0.01	0.029	0.003	957.0	957.0	957.0	0	0	1	-30.0	30.0								
	36	88	0.004	0.027	0.043	1075.0	1075.0	1075.0	0	0	1	-30.0	30.0								
	37	38	0.008	0.047	0.008	616.0	616.0	616.0	0	0	1	-30.0	30.0								
	37	40	0.022	0.064	0.007	434.0	434.0	434.0	0	0	1	-30.0	30.0								
	37	41	0.01	0.036	0.02	786.0	786.0	786.0	0	0	1	-30.0	30.0								
	37	49	0.017	0.081	0.048	355.0	355.0	355.0	0	0	1	-30.0	30.0								
	37	89	0.102	0.254	0.033	108.0	108.0	108.0	0	0	1	-30.0	30.0								
	37	90	0.047	0.127	0.016	217.0	217.0	217.0	0	0	1	-30.0	30.0								
	38	41	0.008	0.037	0.02	775.0	775.0	775.0	0	0	1	-30.0	30.0								
	38	43	0.032	0.087	0.04	317.0	317.0	317.0	0	0	1	-30.0	30.0								
	39	42	0.0006	0.0064	0.404	4564.0	4564.0	4564.0	0	0	1	-30.0	30.0								
	40	48	0.026	0.154	0.022	188.0	188.0	188.0	0	0	1	-30.0	30.0								
	41	42	0.0	0.029	0.0	1012.0	1012.0	1012.0	1.0	0.0	1	-30.0	30.0								
	41	49	0.065	0.191	0.02	146.0	146.0	146.0	0	0	1	-30.0	30.0								
	41	51	0.031	0.089	0.036	312.0	312.0	312.0	0	0	1	-30.0	30.0								
	42	46	0.002	0.014	0.806	2075.0	2075.0	2075.0	0	0	1	-30.0	30.0								
	43	44	0.026	0.072	0.035	384.0	384.0	384.0	0	0	1	-30.0	30.0								
	43	48	0.095	0.262	0.032	106.0	106.0	106.0	0	0	1	-30.0	30.0								
	43	53	0.013	0.039	0.016	714.0	714.0	714.0	0	0	1	-30.0	30.0								